* NGSPICE file created from subbyte2.ext - technology: sky130A

.subckt subbyte2_pnand2_0 A B Z vdd gnd
X0 a_144_51# A gnd gnd sky130_fd_pr__nfet_01v8 ad=0.259p pd=2.18u as=0.222p ps=2.08u w=0.74u l=0.15u
X1 vdd B Z vdd sky130_fd_pr__pfet_01v8 ad=0.672p pd=5.68u as=0.392p ps=2.94u w=1.12u l=0.15u
X2 Z A vdd vdd sky130_fd_pr__pfet_01v8 ad=0p pd=0u as=0p ps=0u w=1.12u l=0.15u
X3 Z B a_144_51# gnd sky130_fd_pr__nfet_01v8 ad=0.222p pd=2.08u as=0p ps=0u w=0.74u l=0.15u
.ends

.subckt subbyte2_pinv_3 A Z vdd gnd
X0 Z A gnd gnd sky130_fd_pr__nfet_01v8 ad=2.4696p pd=16.38u as=2.4696p ps=16.38u w=1.68u l=0.15u
X1 Z A gnd gnd sky130_fd_pr__nfet_01v8 ad=0p pd=0u as=0p ps=0u w=1.68u l=0.15u
X2 gnd A Z gnd sky130_fd_pr__nfet_01v8 ad=0p pd=0u as=0p ps=0u w=1.68u l=0.15u
X3 Z A vdd vdd sky130_fd_pr__pfet_01v8 ad=2.94p pd=18.94u as=2.94p ps=18.94u w=2u l=0.15u
X4 vdd A Z vdd sky130_fd_pr__pfet_01v8 ad=0p pd=0u as=0p ps=0u w=2u l=0.15u
X5 Z A vdd vdd sky130_fd_pr__pfet_01v8 ad=0p pd=0u as=0p ps=0u w=2u l=0.15u
X6 vdd A Z vdd sky130_fd_pr__pfet_01v8 ad=0p pd=0u as=0p ps=0u w=2u l=0.15u
X7 gnd A Z gnd sky130_fd_pr__nfet_01v8 ad=0p pd=0u as=0p ps=0u w=1.68u l=0.15u
X8 Z A gnd gnd sky130_fd_pr__nfet_01v8 ad=0p pd=0u as=0p ps=0u w=1.68u l=0.15u
X9 gnd A Z gnd sky130_fd_pr__nfet_01v8 ad=0p pd=0u as=0p ps=0u w=1.68u l=0.15u
X10 Z A gnd gnd sky130_fd_pr__nfet_01v8 ad=0p pd=0u as=0p ps=0u w=1.68u l=0.15u
X11 Z A vdd vdd sky130_fd_pr__pfet_01v8 ad=0p pd=0u as=0p ps=0u w=2u l=0.15u
X12 vdd A Z vdd sky130_fd_pr__pfet_01v8 ad=0p pd=0u as=0p ps=0u w=2u l=0.15u
X13 Z A vdd vdd sky130_fd_pr__pfet_01v8 ad=0p pd=0u as=0p ps=0u w=2u l=0.15u
.ends

.subckt subbyte2_pdriver_0 A Z vdd gnd
Xsubbyte2_pinv_3_0 A Z vdd gnd subbyte2_pinv_3
.ends

.subckt subbyte2_pnand2 A B Z vdd w_n36_679# gnd
X0 a_144_51# A gnd gnd sky130_fd_pr__nfet_01v8 ad=0.259p pd=2.18u as=0.222p ps=2.08u w=0.74u l=0.15u
X1 vdd B Z w_n36_679# sky130_fd_pr__pfet_01v8 ad=0.672p pd=5.68u as=0.392p ps=2.94u w=1.12u l=0.15u
X2 Z A vdd w_n36_679# sky130_fd_pr__pfet_01v8 ad=0p pd=0u as=0p ps=0u w=1.12u l=0.15u
X3 Z B a_144_51# gnd sky130_fd_pr__nfet_01v8 ad=0.222p pd=2.08u as=0p ps=0u w=0.74u l=0.15u
.ends

.subckt subbyte2_pand2_0 A B Z gnd vdd
Xsubbyte2_pdriver_0_0 subbyte2_pnand2_0/Z Z vdd gnd subbyte2_pdriver_0
Xsubbyte2_pnand2_0 A B subbyte2_pnand2_0/Z vdd vdd gnd subbyte2_pnand2
.ends

.subckt subbyte2_pinv_10 A Z vdd gnd
X0 Z A vdd vdd sky130_fd_pr__pfet_01v8 ad=4.68p pd=28.68u as=5.1p ps=33.1u w=2u l=0.15u
X1 Z A gnd gnd sky130_fd_pr__nfet_01v8 ad=4.68p pd=28.68u as=5.1p ps=33.1u w=2u l=0.15u
X2 Z A gnd gnd sky130_fd_pr__nfet_01v8 ad=0p pd=0u as=0p ps=0u w=2u l=0.15u
X3 Z A gnd gnd sky130_fd_pr__nfet_01v8 ad=0p pd=0u as=0p ps=0u w=2u l=0.15u
X4 gnd A Z gnd sky130_fd_pr__nfet_01v8 ad=0p pd=0u as=0p ps=0u w=2u l=0.15u
X5 vdd A Z vdd sky130_fd_pr__pfet_01v8 ad=0p pd=0u as=0p ps=0u w=2u l=0.15u
X6 Z A vdd vdd sky130_fd_pr__pfet_01v8 ad=0p pd=0u as=0p ps=0u w=2u l=0.15u
X7 Z A vdd vdd sky130_fd_pr__pfet_01v8 ad=0p pd=0u as=0p ps=0u w=2u l=0.15u
X8 vdd A Z vdd sky130_fd_pr__pfet_01v8 ad=0p pd=0u as=0p ps=0u w=2u l=0.15u
X9 Z A vdd vdd sky130_fd_pr__pfet_01v8 ad=0p pd=0u as=0p ps=0u w=2u l=0.15u
X10 vdd A Z vdd sky130_fd_pr__pfet_01v8 ad=0p pd=0u as=0p ps=0u w=2u l=0.15u
X11 gnd A Z gnd sky130_fd_pr__nfet_01v8 ad=0p pd=0u as=0p ps=0u w=2u l=0.15u
X12 gnd A Z gnd sky130_fd_pr__nfet_01v8 ad=0p pd=0u as=0p ps=0u w=2u l=0.15u
X13 Z A gnd gnd sky130_fd_pr__nfet_01v8 ad=0p pd=0u as=0p ps=0u w=2u l=0.15u
X14 gnd A Z gnd sky130_fd_pr__nfet_01v8 ad=0p pd=0u as=0p ps=0u w=2u l=0.15u
X15 Z A gnd gnd sky130_fd_pr__nfet_01v8 ad=0p pd=0u as=0p ps=0u w=2u l=0.15u
X16 Z A vdd vdd sky130_fd_pr__pfet_01v8 ad=0p pd=0u as=0p ps=0u w=2u l=0.15u
X17 vdd A Z vdd sky130_fd_pr__pfet_01v8 ad=0p pd=0u as=0p ps=0u w=2u l=0.15u
X18 vdd A Z vdd sky130_fd_pr__pfet_01v8 ad=0p pd=0u as=0p ps=0u w=2u l=0.15u
X19 Z A vdd vdd sky130_fd_pr__pfet_01v8 ad=0p pd=0u as=0p ps=0u w=2u l=0.15u
X20 vdd A Z vdd sky130_fd_pr__pfet_01v8 ad=0p pd=0u as=0p ps=0u w=2u l=0.15u
X21 gnd A Z gnd sky130_fd_pr__nfet_01v8 ad=0p pd=0u as=0p ps=0u w=2u l=0.15u
X22 Z A gnd gnd sky130_fd_pr__nfet_01v8 ad=0p pd=0u as=0p ps=0u w=2u l=0.15u
X23 gnd A Z gnd sky130_fd_pr__nfet_01v8 ad=0p pd=0u as=0p ps=0u w=2u l=0.15u
.ends

.subckt subbyte2_pinv_9 A Z vdd gnd
X0 Z A gnd gnd sky130_fd_pr__nfet_01v8 ad=0.9828p pd=6.6u as=1.2474p ps=9.54u w=1.26u l=0.15u
X1 Z A gnd gnd sky130_fd_pr__nfet_01v8 ad=0p pd=0u as=0p ps=0u w=1.26u l=0.15u
X2 gnd A Z gnd sky130_fd_pr__nfet_01v8 ad=0p pd=0u as=0p ps=0u w=1.26u l=0.15u
X3 Z A vdd vdd sky130_fd_pr__pfet_01v8 ad=1.56p pd=9.56u as=1.98p ps=13.98u w=2u l=0.15u
X4 vdd A Z vdd sky130_fd_pr__pfet_01v8 ad=0p pd=0u as=0p ps=0u w=2u l=0.15u
X5 Z A vdd vdd sky130_fd_pr__pfet_01v8 ad=0p pd=0u as=0p ps=0u w=2u l=0.15u
X6 vdd A Z vdd sky130_fd_pr__pfet_01v8 ad=0p pd=0u as=0p ps=0u w=2u l=0.15u
X7 gnd A Z gnd sky130_fd_pr__nfet_01v8 ad=0p pd=0u as=0p ps=0u w=1.26u l=0.15u
.ends

.subckt subbyte2_pdriver_2 A Z vdd gnd
Xsubbyte2_pinv_10_0 subbyte2_pinv_9_0/Z Z vdd gnd subbyte2_pinv_10
Xsubbyte2_pinv_9_0 A subbyte2_pinv_9_0/Z vdd gnd subbyte2_pinv_9
.ends

.subckt subbyte2_pinv_13 A Z vdd gnd
X0 Z A gnd gnd sky130_fd_pr__nfet_01v8 ad=0.108p pd=1.32u as=0.108p ps=1.32u w=0.36u l=0.15u
X1 Z A vdd vdd sky130_fd_pr__pfet_01v8 ad=0.336p pd=2.84u as=0.336p ps=2.84u w=1.12u l=0.15u
.ends

.subckt subbyte2_delay_chain in out vdd gnd
Xsubbyte2_pinv_13_8 subbyte2_pinv_13_9/Z subbyte2_pinv_13_8/Z vdd gnd subbyte2_pinv_13
Xsubbyte2_pinv_13_13 subbyte2_pinv_13_9/A subbyte2_pinv_13_13/Z vdd gnd subbyte2_pinv_13
Xsubbyte2_pinv_13_24 subbyte2_pinv_13_29/Z subbyte2_pinv_13_24/Z vdd gnd subbyte2_pinv_13
Xsubbyte2_pinv_13_35 subbyte2_pinv_13_39/Z subbyte2_pinv_13_35/Z vdd gnd subbyte2_pinv_13
Xsubbyte2_pinv_13_9 subbyte2_pinv_13_9/A subbyte2_pinv_13_9/Z vdd gnd subbyte2_pinv_13
Xsubbyte2_pinv_13_14 subbyte2_pinv_13_19/Z subbyte2_pinv_13_9/A vdd gnd subbyte2_pinv_13
Xsubbyte2_pinv_13_25 subbyte2_pinv_13_29/Z subbyte2_pinv_13_25/Z vdd gnd subbyte2_pinv_13
Xsubbyte2_pinv_13_36 subbyte2_pinv_13_39/Z subbyte2_pinv_13_36/Z vdd gnd subbyte2_pinv_13
Xsubbyte2_pinv_13_15 subbyte2_pinv_13_19/Z subbyte2_pinv_13_15/Z vdd gnd subbyte2_pinv_13
Xsubbyte2_pinv_13_26 subbyte2_pinv_13_29/Z subbyte2_pinv_13_26/Z vdd gnd subbyte2_pinv_13
Xsubbyte2_pinv_13_37 subbyte2_pinv_13_39/Z subbyte2_pinv_13_37/Z vdd gnd subbyte2_pinv_13
Xsubbyte2_pinv_13_16 subbyte2_pinv_13_19/Z subbyte2_pinv_13_16/Z vdd gnd subbyte2_pinv_13
Xsubbyte2_pinv_13_27 subbyte2_pinv_13_29/Z subbyte2_pinv_13_27/Z vdd gnd subbyte2_pinv_13
Xsubbyte2_pinv_13_38 subbyte2_pinv_13_39/Z subbyte2_pinv_13_38/Z vdd gnd subbyte2_pinv_13
Xsubbyte2_pinv_13_17 subbyte2_pinv_13_19/Z subbyte2_pinv_13_17/Z vdd gnd subbyte2_pinv_13
Xsubbyte2_pinv_13_28 subbyte2_pinv_13_29/Z subbyte2_pinv_13_28/Z vdd gnd subbyte2_pinv_13
Xsubbyte2_pinv_13_39 subbyte2_pinv_13_44/Z subbyte2_pinv_13_39/Z vdd gnd subbyte2_pinv_13
Xsubbyte2_pinv_13_18 subbyte2_pinv_13_19/Z subbyte2_pinv_13_18/Z vdd gnd subbyte2_pinv_13
Xsubbyte2_pinv_13_29 subbyte2_pinv_13_34/Z subbyte2_pinv_13_29/Z vdd gnd subbyte2_pinv_13
Xsubbyte2_pinv_13_19 subbyte2_pinv_13_24/Z subbyte2_pinv_13_19/Z vdd gnd subbyte2_pinv_13
Xsubbyte2_pinv_13_0 out subbyte2_pinv_13_0/Z vdd gnd subbyte2_pinv_13
Xsubbyte2_pinv_13_1 out subbyte2_pinv_13_1/Z vdd gnd subbyte2_pinv_13
Xsubbyte2_pinv_13_2 out subbyte2_pinv_13_2/Z vdd gnd subbyte2_pinv_13
Xsubbyte2_pinv_13_40 subbyte2_pinv_13_44/Z subbyte2_pinv_13_40/Z vdd gnd subbyte2_pinv_13
Xsubbyte2_pinv_13_3 out subbyte2_pinv_13_3/Z vdd gnd subbyte2_pinv_13
Xsubbyte2_pinv_13_30 subbyte2_pinv_13_34/Z subbyte2_pinv_13_30/Z vdd gnd subbyte2_pinv_13
Xsubbyte2_pinv_13_41 subbyte2_pinv_13_44/Z subbyte2_pinv_13_41/Z vdd gnd subbyte2_pinv_13
Xsubbyte2_pinv_13_4 subbyte2_pinv_13_9/Z out vdd gnd subbyte2_pinv_13
Xsubbyte2_pinv_13_20 subbyte2_pinv_13_24/Z subbyte2_pinv_13_20/Z vdd gnd subbyte2_pinv_13
Xsubbyte2_pinv_13_31 subbyte2_pinv_13_34/Z subbyte2_pinv_13_31/Z vdd gnd subbyte2_pinv_13
Xsubbyte2_pinv_13_42 subbyte2_pinv_13_44/Z subbyte2_pinv_13_42/Z vdd gnd subbyte2_pinv_13
Xsubbyte2_pinv_13_5 subbyte2_pinv_13_9/Z subbyte2_pinv_13_5/Z vdd gnd subbyte2_pinv_13
Xsubbyte2_pinv_13_6 subbyte2_pinv_13_9/Z subbyte2_pinv_13_6/Z vdd gnd subbyte2_pinv_13
Xsubbyte2_pinv_13_10 subbyte2_pinv_13_9/A subbyte2_pinv_13_10/Z vdd gnd subbyte2_pinv_13
Xsubbyte2_pinv_13_11 subbyte2_pinv_13_9/A subbyte2_pinv_13_11/Z vdd gnd subbyte2_pinv_13
Xsubbyte2_pinv_13_21 subbyte2_pinv_13_24/Z subbyte2_pinv_13_21/Z vdd gnd subbyte2_pinv_13
Xsubbyte2_pinv_13_22 subbyte2_pinv_13_24/Z subbyte2_pinv_13_22/Z vdd gnd subbyte2_pinv_13
Xsubbyte2_pinv_13_32 subbyte2_pinv_13_34/Z subbyte2_pinv_13_32/Z vdd gnd subbyte2_pinv_13
Xsubbyte2_pinv_13_33 subbyte2_pinv_13_34/Z subbyte2_pinv_13_33/Z vdd gnd subbyte2_pinv_13
Xsubbyte2_pinv_13_43 subbyte2_pinv_13_44/Z subbyte2_pinv_13_43/Z vdd gnd subbyte2_pinv_13
Xsubbyte2_pinv_13_44 in subbyte2_pinv_13_44/Z vdd gnd subbyte2_pinv_13
Xsubbyte2_pinv_13_7 subbyte2_pinv_13_9/Z subbyte2_pinv_13_7/Z vdd gnd subbyte2_pinv_13
Xsubbyte2_pinv_13_12 subbyte2_pinv_13_9/A subbyte2_pinv_13_12/Z vdd gnd subbyte2_pinv_13
Xsubbyte2_pinv_13_23 subbyte2_pinv_13_24/Z subbyte2_pinv_13_23/Z vdd gnd subbyte2_pinv_13
Xsubbyte2_pinv_13_34 subbyte2_pinv_13_39/Z subbyte2_pinv_13_34/Z vdd gnd subbyte2_pinv_13
.ends

.subckt subbyte2_pinv_0 A Z vdd gnd
X0 Z A gnd gnd sky130_fd_pr__nfet_01v8 ad=0.108p pd=1.32u as=0.108p ps=1.32u w=0.36u l=0.15u
X1 Z A vdd vdd sky130_fd_pr__pfet_01v8 ad=0.336p pd=2.84u as=0.336p ps=2.84u w=1.12u l=0.15u
.ends

.subckt subbyte2_pinv_6 A Z vdd gnd
X0 Z A gnd gnd sky130_fd_pr__nfet_01v8 ad=1.1592p pd=8.1u as=1.1592p ps=8.1u w=1.68u l=0.15u
X1 Z A gnd gnd sky130_fd_pr__nfet_01v8 ad=0p pd=0u as=0p ps=0u w=1.68u l=0.15u
X2 gnd A Z gnd sky130_fd_pr__nfet_01v8 ad=0p pd=0u as=0p ps=0u w=1.68u l=0.15u
X3 Z A vdd vdd sky130_fd_pr__pfet_01v8 ad=1.1592p pd=8.1u as=1.1592p ps=8.1u w=1.68u l=0.15u
X4 vdd A Z vdd sky130_fd_pr__pfet_01v8 ad=0p pd=0u as=0p ps=0u w=1.68u l=0.15u
X5 Z A vdd vdd sky130_fd_pr__pfet_01v8 ad=0p pd=0u as=0p ps=0u w=1.68u l=0.15u
.ends

.subckt subbyte2_pinv_7 A Z vdd gnd
X0 Z A gnd gnd sky130_fd_pr__nfet_01v8 ad=2.34p pd=14.34u as=2.76p ps=18.76u w=2u l=0.15u
X1 Z A gnd gnd sky130_fd_pr__nfet_01v8 ad=0p pd=0u as=0p ps=0u w=2u l=0.15u
X2 gnd A Z gnd sky130_fd_pr__nfet_01v8 ad=0p pd=0u as=0p ps=0u w=2u l=0.15u
X3 Z A vdd vdd sky130_fd_pr__pfet_01v8 ad=2.34p pd=14.34u as=2.76p ps=18.76u w=2u l=0.15u
X4 vdd A Z vdd sky130_fd_pr__pfet_01v8 ad=0p pd=0u as=0p ps=0u w=2u l=0.15u
X5 Z A vdd vdd sky130_fd_pr__pfet_01v8 ad=0p pd=0u as=0p ps=0u w=2u l=0.15u
X6 vdd A Z vdd sky130_fd_pr__pfet_01v8 ad=0p pd=0u as=0p ps=0u w=2u l=0.15u
X7 gnd A Z gnd sky130_fd_pr__nfet_01v8 ad=0p pd=0u as=0p ps=0u w=2u l=0.15u
X8 Z A gnd gnd sky130_fd_pr__nfet_01v8 ad=0p pd=0u as=0p ps=0u w=2u l=0.15u
X9 gnd A Z gnd sky130_fd_pr__nfet_01v8 ad=0p pd=0u as=0p ps=0u w=2u l=0.15u
X10 Z A vdd vdd sky130_fd_pr__pfet_01v8 ad=0p pd=0u as=0p ps=0u w=2u l=0.15u
X11 vdd A Z vdd sky130_fd_pr__pfet_01v8 ad=0p pd=0u as=0p ps=0u w=2u l=0.15u
.ends

.subckt subbyte2_pinv A Z vdd gnd
X0 Z A gnd gnd sky130_fd_pr__nfet_01v8 ad=0.108p pd=1.32u as=0.108p ps=1.32u w=0.36u l=0.15u
X1 Z A vdd vdd sky130_fd_pr__pfet_01v8 ad=0.336p pd=2.84u as=0.336p ps=2.84u w=1.12u l=0.15u
.ends

.subckt subbyte2_pdriver_5 A Z gnd vdd
Xsubbyte2_pinv_6_0 subbyte2_pinv_0/Z subbyte2_pinv_7_0/A vdd gnd subbyte2_pinv_6
Xsubbyte2_pinv_7_0 subbyte2_pinv_7_0/A Z vdd gnd subbyte2_pinv_7
Xsubbyte2_pinv_0 subbyte2_pinv_1/Z subbyte2_pinv_0/Z vdd gnd subbyte2_pinv
Xsubbyte2_pinv_1 A subbyte2_pinv_1/Z vdd gnd subbyte2_pinv
.ends

.subckt subbyte2_pinv_8 A Z vdd gnd
X0 Z A vdd vdd sky130_fd_pr__pfet_01v8 ad=7.02p pd=43.02u as=7.44p ps=47.44u w=2u l=0.15u
X1 vdd A Z vdd sky130_fd_pr__pfet_01v8 ad=0p pd=0u as=0p ps=0u w=2u l=0.15u
X2 Z A gnd gnd sky130_fd_pr__nfet_01v8 ad=7.02p pd=43.02u as=7.44p ps=47.44u w=2u l=0.15u
X3 Z A vdd vdd sky130_fd_pr__pfet_01v8 ad=0p pd=0u as=0p ps=0u w=2u l=0.15u
X4 Z A gnd gnd sky130_fd_pr__nfet_01v8 ad=0p pd=0u as=0p ps=0u w=2u l=0.15u
X5 Z A gnd gnd sky130_fd_pr__nfet_01v8 ad=0p pd=0u as=0p ps=0u w=2u l=0.15u
X6 gnd A Z gnd sky130_fd_pr__nfet_01v8 ad=0p pd=0u as=0p ps=0u w=2u l=0.15u
X7 vdd A Z vdd sky130_fd_pr__pfet_01v8 ad=0p pd=0u as=0p ps=0u w=2u l=0.15u
X8 vdd A Z vdd sky130_fd_pr__pfet_01v8 ad=0p pd=0u as=0p ps=0u w=2u l=0.15u
X9 Z A vdd vdd sky130_fd_pr__pfet_01v8 ad=0p pd=0u as=0p ps=0u w=2u l=0.15u
X10 Z A vdd vdd sky130_fd_pr__pfet_01v8 ad=0p pd=0u as=0p ps=0u w=2u l=0.15u
X11 vdd A Z vdd sky130_fd_pr__pfet_01v8 ad=0p pd=0u as=0p ps=0u w=2u l=0.15u
X12 gnd A Z gnd sky130_fd_pr__nfet_01v8 ad=0p pd=0u as=0p ps=0u w=2u l=0.15u
X13 Z A gnd gnd sky130_fd_pr__nfet_01v8 ad=0p pd=0u as=0p ps=0u w=2u l=0.15u
X14 gnd A Z gnd sky130_fd_pr__nfet_01v8 ad=0p pd=0u as=0p ps=0u w=2u l=0.15u
X15 Z A gnd gnd sky130_fd_pr__nfet_01v8 ad=0p pd=0u as=0p ps=0u w=2u l=0.15u
X16 gnd A Z gnd sky130_fd_pr__nfet_01v8 ad=0p pd=0u as=0p ps=0u w=2u l=0.15u
X17 Z A vdd vdd sky130_fd_pr__pfet_01v8 ad=0p pd=0u as=0p ps=0u w=2u l=0.15u
X18 vdd A Z vdd sky130_fd_pr__pfet_01v8 ad=0p pd=0u as=0p ps=0u w=2u l=0.15u
X19 gnd A Z gnd sky130_fd_pr__nfet_01v8 ad=0p pd=0u as=0p ps=0u w=2u l=0.15u
X20 gnd A Z gnd sky130_fd_pr__nfet_01v8 ad=0p pd=0u as=0p ps=0u w=2u l=0.15u
X21 Z A gnd gnd sky130_fd_pr__nfet_01v8 ad=0p pd=0u as=0p ps=0u w=2u l=0.15u
X22 gnd A Z gnd sky130_fd_pr__nfet_01v8 ad=0p pd=0u as=0p ps=0u w=2u l=0.15u
X23 Z A gnd gnd sky130_fd_pr__nfet_01v8 ad=0p pd=0u as=0p ps=0u w=2u l=0.15u
X24 Z A vdd vdd sky130_fd_pr__pfet_01v8 ad=0p pd=0u as=0p ps=0u w=2u l=0.15u
X25 vdd A Z vdd sky130_fd_pr__pfet_01v8 ad=0p pd=0u as=0p ps=0u w=2u l=0.15u
X26 vdd A Z vdd sky130_fd_pr__pfet_01v8 ad=0p pd=0u as=0p ps=0u w=2u l=0.15u
X27 Z A vdd vdd sky130_fd_pr__pfet_01v8 ad=0p pd=0u as=0p ps=0u w=2u l=0.15u
X28 Z A vdd vdd sky130_fd_pr__pfet_01v8 ad=0p pd=0u as=0p ps=0u w=2u l=0.15u
X29 vdd A Z vdd sky130_fd_pr__pfet_01v8 ad=0p pd=0u as=0p ps=0u w=2u l=0.15u
X30 vdd A Z vdd sky130_fd_pr__pfet_01v8 ad=0p pd=0u as=0p ps=0u w=2u l=0.15u
X31 gnd A Z gnd sky130_fd_pr__nfet_01v8 ad=0p pd=0u as=0p ps=0u w=2u l=0.15u
X32 Z A gnd gnd sky130_fd_pr__nfet_01v8 ad=0p pd=0u as=0p ps=0u w=2u l=0.15u
X33 Z A gnd gnd sky130_fd_pr__nfet_01v8 ad=0p pd=0u as=0p ps=0u w=2u l=0.15u
X34 Z A vdd vdd sky130_fd_pr__pfet_01v8 ad=0p pd=0u as=0p ps=0u w=2u l=0.15u
X35 gnd A Z gnd sky130_fd_pr__nfet_01v8 ad=0p pd=0u as=0p ps=0u w=2u l=0.15u
.ends

.subckt subbyte2_pdriver_1 A Z gnd vdd
Xsubbyte2_pinv_8_0 subbyte2_pinv_8_0/A Z vdd gnd subbyte2_pinv_8
Xsubbyte2_pinv_6_0 subbyte2_pinv_0/Z subbyte2_pinv_7_0/A vdd gnd subbyte2_pinv_6
Xsubbyte2_pinv_7_0 subbyte2_pinv_7_0/A subbyte2_pinv_8_0/A vdd gnd subbyte2_pinv_7
Xsubbyte2_pinv_0 subbyte2_pinv_1/Z subbyte2_pinv_0/Z vdd gnd subbyte2_pinv
Xsubbyte2_pinv_2 A subbyte2_pinv_2/Z vdd gnd subbyte2_pinv
Xsubbyte2_pinv_1 subbyte2_pinv_2/Z subbyte2_pinv_1/Z vdd gnd subbyte2_pinv
.ends

.subckt subbyte2_pinv_12 A Z vdd gnd
X0 Z A gnd gnd sky130_fd_pr__nfet_01v8 ad=1.8144p pd=12.24u as=1.8144p ps=12.24u w=1.68u l=0.15u
X1 Z A gnd gnd sky130_fd_pr__nfet_01v8 ad=0p pd=0u as=0p ps=0u w=1.68u l=0.15u
X2 gnd A Z gnd sky130_fd_pr__nfet_01v8 ad=0p pd=0u as=0p ps=0u w=1.68u l=0.15u
X3 Z A vdd vdd sky130_fd_pr__pfet_01v8 ad=2.16p pd=14.16u as=2.16p ps=14.16u w=2u l=0.15u
X4 vdd A Z vdd sky130_fd_pr__pfet_01v8 ad=0p pd=0u as=0p ps=0u w=2u l=0.15u
X5 Z A vdd vdd sky130_fd_pr__pfet_01v8 ad=0p pd=0u as=0p ps=0u w=2u l=0.15u
X6 vdd A Z vdd sky130_fd_pr__pfet_01v8 ad=0p pd=0u as=0p ps=0u w=2u l=0.15u
X7 gnd A Z gnd sky130_fd_pr__nfet_01v8 ad=0p pd=0u as=0p ps=0u w=1.68u l=0.15u
X8 Z A gnd gnd sky130_fd_pr__nfet_01v8 ad=0p pd=0u as=0p ps=0u w=1.68u l=0.15u
X9 Z A vdd vdd sky130_fd_pr__pfet_01v8 ad=0p pd=0u as=0p ps=0u w=2u l=0.15u
.ends

.subckt subbyte2_pdriver_4 A Z vdd gnd
Xsubbyte2_pinv_12_0 A Z vdd gnd subbyte2_pinv_12
.ends

.subckt subbyte2_pnand3 A B C Z vdd w_n36_679# gnd
X0 Z C vdd w_n36_679# sky130_fd_pr__pfet_01v8 ad=0.728p pd=5.78u as=0.728p ps=5.78u w=1.12u l=0.15u
X1 a_144_51# A gnd gnd sky130_fd_pr__nfet_01v8 ad=0.259p pd=2.18u as=0.222p ps=2.08u w=0.74u l=0.15u
X2 vdd B Z w_n36_679# sky130_fd_pr__pfet_01v8 ad=0p pd=0u as=0p ps=0u w=1.12u l=0.15u
X3 Z A vdd w_n36_679# sky130_fd_pr__pfet_01v8 ad=0p pd=0u as=0p ps=0u w=1.12u l=0.15u
X4 Z C a_244_51# gnd sky130_fd_pr__nfet_01v8 ad=0.222p pd=2.08u as=0.259p ps=2.18u w=0.74u l=0.15u
X5 a_244_51# B a_144_51# gnd sky130_fd_pr__nfet_01v8 ad=0p pd=0u as=0p ps=0u w=0.74u l=0.15u
.ends

.subckt subbyte2_pand3_0 A B C Z vdd gnd
Xsubbyte2_pdriver_4_0 subbyte2_pnand3_0/Z Z vdd gnd subbyte2_pdriver_4
Xsubbyte2_pnand3_0 A B C subbyte2_pnand3_0/Z vdd vdd gnd subbyte2_pnand3
.ends

.subckt subbyte2_pinv_2 A Z vdd gnd
X0 Z A gnd gnd sky130_fd_pr__nfet_01v8 ad=1.1592p pd=8.1u as=1.1592p ps=8.1u w=1.68u l=0.15u
X1 Z A gnd gnd sky130_fd_pr__nfet_01v8 ad=0p pd=0u as=0p ps=0u w=1.68u l=0.15u
X2 gnd A Z gnd sky130_fd_pr__nfet_01v8 ad=0p pd=0u as=0p ps=0u w=1.68u l=0.15u
X3 Z A vdd vdd sky130_fd_pr__pfet_01v8 ad=1.1592p pd=8.1u as=1.1592p ps=8.1u w=1.68u l=0.15u
X4 vdd A Z vdd sky130_fd_pr__pfet_01v8 ad=0p pd=0u as=0p ps=0u w=1.68u l=0.15u
X5 Z A vdd vdd sky130_fd_pr__pfet_01v8 ad=0p pd=0u as=0p ps=0u w=1.68u l=0.15u
.ends

.subckt sky130_fd_bd_sram__openram_dff D Q gnd clk vdd QN
X0 vdd a_28_102# a_389_712# vdd sky130_fd_pr__pfet_01v8 ad=3.315p pd=26.21u as=0.63p ps=6.42u w=3u l=0.15u
X1 a_47_611# clk a_197_712# vdd sky130_fd_pr__pfet_01v8 ad=1.35p pd=6.9u as=0.63p ps=6.42u w=3u l=0.15u
X2 a_239_76# clk vdd vdd sky130_fd_pr__pfet_01v8 ad=0.795p pd=6.53u as=0p ps=0u w=3u l=0.15u
X3 a_197_712# D vdd vdd sky130_fd_pr__pfet_01v8 ad=0p pd=0u as=0p ps=0u w=3u l=0.15u
X4 QN clk a_547_102# gnd sky130_fd_pr__nfet_01v8 ad=0.45p pd=2.9u as=0.21p ps=2.42u w=1u l=0.15u
X5 gnd Q a_739_102# gnd sky130_fd_pr__nfet_01v8 ad=1.105p pd=10.21u as=0.21p ps=2.42u w=1u l=0.15u
X6 Q QN gnd gnd sky130_fd_pr__nfet_01v8 ad=0.265p pd=2.53u as=0p ps=0u w=1u l=0.15u
X7 a_389_712# a_239_76# a_47_611# vdd sky130_fd_pr__pfet_01v8 ad=0p pd=0u as=0p ps=0u w=3u l=0.15u
X8 vdd a_47_611# a_28_102# vdd sky130_fd_pr__pfet_01v8 ad=0p pd=0u as=0.795p ps=6.53u w=3u l=0.15u
X9 a_547_712# a_28_102# vdd vdd sky130_fd_pr__pfet_01v8 ad=0.63p pd=6.42u as=0p ps=0u w=3u l=0.15u
X10 a_739_712# clk QN vdd sky130_fd_pr__pfet_01v8 ad=0.63p pd=6.42u as=1.35p ps=6.9u w=3u l=0.15u
X11 gnd a_28_102# a_389_102# gnd sky130_fd_pr__nfet_01v8 ad=0p pd=0u as=0.21p ps=2.42u w=1u l=0.15u
X12 a_47_611# a_239_76# a_197_102# gnd sky130_fd_pr__nfet_01v8 ad=0.45p pd=2.9u as=0.21p ps=2.42u w=1u l=0.15u
X13 a_239_76# clk gnd gnd sky130_fd_pr__nfet_01v8 ad=0.265p pd=2.53u as=0p ps=0u w=1u l=0.15u
X14 a_197_102# D gnd gnd sky130_fd_pr__nfet_01v8 ad=0p pd=0u as=0p ps=0u w=1u l=0.15u
X15 a_389_102# clk a_47_611# gnd sky130_fd_pr__nfet_01v8 ad=0p pd=0u as=0p ps=0u w=1u l=0.15u
X16 gnd a_47_611# a_28_102# gnd sky130_fd_pr__nfet_01v8 ad=0p pd=0u as=0.265p ps=2.53u w=1u l=0.15u
X17 a_547_102# a_28_102# gnd gnd sky130_fd_pr__nfet_01v8 ad=0p pd=0u as=0p ps=0u w=1u l=0.15u
X18 a_739_102# a_239_76# QN gnd sky130_fd_pr__nfet_01v8 ad=0p pd=0u as=0p ps=0u w=1u l=0.15u
X19 vdd Q a_739_712# vdd sky130_fd_pr__pfet_01v8 ad=0p pd=0u as=0p ps=0u w=3u l=0.15u
X20 QN a_239_76# a_547_712# vdd sky130_fd_pr__pfet_01v8 ad=0p pd=0u as=0p ps=0u w=3u l=0.15u
X21 Q QN vdd vdd sky130_fd_pr__pfet_01v8 ad=0.795p pd=6.53u as=0p ps=0u w=3u l=0.15u
.ends

.subckt subbyte2_pinv_1 A Z vdd gnd
X0 Z A gnd gnd sky130_fd_pr__nfet_01v8 ad=0.2886p pd=2.26u as=0.444p ps=4.16u w=0.74u l=0.15u
X1 gnd A Z gnd sky130_fd_pr__nfet_01v8 ad=0p pd=0u as=0p ps=0u w=0.74u l=0.15u
X2 vdd A Z vdd sky130_fd_pr__pfet_01v8 ad=0.756p pd=6.24u as=0.4914p ps=3.3u w=1.26u l=0.15u
X3 Z A vdd vdd sky130_fd_pr__pfet_01v8 ad=0p pd=0u as=0p ps=0u w=1.26u l=0.15u
.ends

.subckt subbyte2_dff_buf_0 Q Qb clk vdd gnd D
Xsubbyte2_pinv_2_0 Qb Q vdd gnd subbyte2_pinv_2
Xsky130_fd_bd_sram__openram_dff_0 D subbyte2_pinv_1_0/A gnd clk vdd sky130_fd_bd_sram__openram_dff_0/QN
+ sky130_fd_bd_sram__openram_dff
Xsubbyte2_pinv_1_0 subbyte2_pinv_1_0/A Qb vdd gnd subbyte2_pinv_1
.ends

.subckt subbyte2_dff_buf_array dout_0 clk dout_bar_0 vdd din_0 gnd
Xsubbyte2_dff_buf_0_0 dout_0 dout_bar_0 clk vdd gnd din_0 subbyte2_dff_buf_0
.ends

.subckt subbyte2_control_logic_r clk rbl_bl s_en p_en_bar wl_en clk_buf vdd_uq1 csb
+ vdd gnd vdd_uq0
Xsubbyte2_pnand2_0_0 subbyte2_pand2_0_0/Z subbyte2_pand3_0_0/A subbyte2_pnand2_0_0/Z
+ vdd_uq1 gnd subbyte2_pnand2_0
Xsubbyte2_pand2_0_1 subbyte2_pinv_0_0/Z subbyte2_pand3_0_0/C subbyte2_pand3_0_0/B
+ gnd vdd_uq1 subbyte2_pand2_0
Xsubbyte2_pdriver_2_0 subbyte2_pand3_0_0/B wl_en vdd_uq1 gnd subbyte2_pdriver_2
Xsubbyte2_delay_chain_0 rbl_bl subbyte2_pand3_0_0/A vdd_uq0 gnd subbyte2_delay_chain
Xsubbyte2_pinv_0_0 clk_buf subbyte2_pinv_0_0/Z vdd_uq1 gnd subbyte2_pinv_0
Xsubbyte2_pdriver_5_0 subbyte2_pnand2_0_0/Z p_en_bar gnd vdd_uq1 subbyte2_pdriver_5
Xsubbyte2_pdriver_1_0 clk clk_buf gnd vdd_uq1 subbyte2_pdriver_1
Xsubbyte2_pand3_0_0 subbyte2_pand3_0_0/A subbyte2_pand3_0_0/B subbyte2_pand3_0_0/C
+ s_en vdd_uq1 gnd subbyte2_pand3_0
Xsubbyte2_dff_buf_array_0 subbyte2_dff_buf_array_0/dout_0 clk_buf subbyte2_pand3_0_0/C
+ vdd csb gnd subbyte2_dff_buf_array
Xsubbyte2_pand2_0_0 clk_buf subbyte2_pand3_0_0/C subbyte2_pand2_0_0/Z gnd vdd_uq1
+ subbyte2_pand2_0
.ends

.subckt subbyte2_pinv_11 A Z vdd gnd
X0 Z A vdd vdd sky130_fd_pr__pfet_01v8 ad=3.72p pd=23.72u as=3.72p ps=23.72u w=2u l=0.15u
X1 Z A gnd gnd sky130_fd_pr__nfet_01v8 ad=3.72p pd=23.72u as=3.72p ps=23.72u w=2u l=0.15u
X2 Z A gnd gnd sky130_fd_pr__nfet_01v8 ad=0p pd=0u as=0p ps=0u w=2u l=0.15u
X3 Z A gnd gnd sky130_fd_pr__nfet_01v8 ad=0p pd=0u as=0p ps=0u w=2u l=0.15u
X4 gnd A Z gnd sky130_fd_pr__nfet_01v8 ad=0p pd=0u as=0p ps=0u w=2u l=0.15u
X5 Z A vdd vdd sky130_fd_pr__pfet_01v8 ad=0p pd=0u as=0p ps=0u w=2u l=0.15u
X6 vdd A Z vdd sky130_fd_pr__pfet_01v8 ad=0p pd=0u as=0p ps=0u w=2u l=0.15u
X7 Z A vdd vdd sky130_fd_pr__pfet_01v8 ad=0p pd=0u as=0p ps=0u w=2u l=0.15u
X8 vdd A Z vdd sky130_fd_pr__pfet_01v8 ad=0p pd=0u as=0p ps=0u w=2u l=0.15u
X9 gnd A Z gnd sky130_fd_pr__nfet_01v8 ad=0p pd=0u as=0p ps=0u w=2u l=0.15u
X10 gnd A Z gnd sky130_fd_pr__nfet_01v8 ad=0p pd=0u as=0p ps=0u w=2u l=0.15u
X11 Z A gnd gnd sky130_fd_pr__nfet_01v8 ad=0p pd=0u as=0p ps=0u w=2u l=0.15u
X12 gnd A Z gnd sky130_fd_pr__nfet_01v8 ad=0p pd=0u as=0p ps=0u w=2u l=0.15u
X13 Z A gnd gnd sky130_fd_pr__nfet_01v8 ad=0p pd=0u as=0p ps=0u w=2u l=0.15u
X14 Z A vdd vdd sky130_fd_pr__pfet_01v8 ad=0p pd=0u as=0p ps=0u w=2u l=0.15u
X15 vdd A Z vdd sky130_fd_pr__pfet_01v8 ad=0p pd=0u as=0p ps=0u w=2u l=0.15u
X16 Z A vdd vdd sky130_fd_pr__pfet_01v8 ad=0p pd=0u as=0p ps=0u w=2u l=0.15u
X17 vdd A Z vdd sky130_fd_pr__pfet_01v8 ad=0p pd=0u as=0p ps=0u w=2u l=0.15u
.ends

.subckt subbyte2_pdriver_3 A Z vdd gnd
Xsubbyte2_pinv_11_0 A Z vdd gnd subbyte2_pinv_11
.ends

.subckt subbyte2_pand3 A B C Z vdd gnd
Xsubbyte2_pdriver_3_0 subbyte2_pnand3_0/Z Z vdd gnd subbyte2_pdriver_3
Xsubbyte2_pnand3_0 A B C subbyte2_pnand3_0/Z vdd vdd gnd subbyte2_pnand3
.ends

.subckt subbyte2_control_logic_w clk rbl_bl w_en p_en_bar wl_en clk_buf vdd_uq1 csb
+ gnd vdd vdd_uq0
Xsubbyte2_pnand2_0_0 subbyte2_pand2_0_0/Z subbyte2_pinv_0_0/A subbyte2_pnand2_0_0/Z
+ vdd_uq1 gnd subbyte2_pnand2_0
Xsubbyte2_pand2_0_1 subbyte2_pinv_0_1/Z subbyte2_pand3_0/A subbyte2_pand3_0/C gnd
+ vdd_uq1 subbyte2_pand2_0
Xsubbyte2_pdriver_2_0 subbyte2_pand3_0/C wl_en vdd_uq1 gnd subbyte2_pdriver_2
Xsubbyte2_delay_chain_0 rbl_bl subbyte2_pinv_0_0/A vdd_uq0 gnd subbyte2_delay_chain
Xsubbyte2_pinv_0_0 subbyte2_pinv_0_0/A subbyte2_pand3_0/B vdd_uq1 gnd subbyte2_pinv_0
Xsubbyte2_pinv_0_1 clk_buf subbyte2_pinv_0_1/Z vdd_uq1 gnd subbyte2_pinv_0
Xsubbyte2_pdriver_5_0 subbyte2_pnand2_0_0/Z p_en_bar gnd vdd_uq1 subbyte2_pdriver_5
Xsubbyte2_pdriver_1_0 clk clk_buf gnd vdd_uq1 subbyte2_pdriver_1
Xsubbyte2_dff_buf_array_0 subbyte2_dff_buf_array_0/dout_0 clk_buf subbyte2_pand3_0/A
+ vdd csb gnd subbyte2_dff_buf_array
Xsubbyte2_pand3_0 subbyte2_pand3_0/A subbyte2_pand3_0/B subbyte2_pand3_0/C w_en vdd_uq1
+ gnd subbyte2_pand3
Xsubbyte2_pand2_0_0 clk_buf subbyte2_pand3_0/A subbyte2_pand2_0_0/Z gnd vdd_uq1 subbyte2_pand2_0
.ends

.subckt sky130_fd_bd_sram__openram_dp_cell gnd bl0 br0 bl1 br1 wl0 wl1 vdd a_38_n79#
+ a_400_n79#
X0 gnd gnd bl1 gnd sky130_fd_pr__special_nfet_latch ad=1.0032p pd=13.14u as=0.0504p ps=0.9u w=0.21u l=0.08u
X1 a_38_133# wl0 a_38_133# vdd sky130_fd_pr__special_pfet_pass ad=0.035p pd=0.78u as=0p ps=0u w=0.07u l=0.15u
X2 a_16_183# wl1 br1 gnd sky130_fd_pr__special_nfet_latch ad=0.3088p pd=4.43u as=0.0504p ps=0.9u w=0.21u l=0.15u
X3 gnd gnd a_400_n79# gnd sky130_fd_pr__special_nfet_latch ad=0p pd=0u as=0.0252p ps=0.66u w=0.21u l=0.08u
X4 a_16_183# a_38_133# gnd gnd sky130_fd_pr__special_nfet_latch ad=0p pd=0u as=0.2768p ps=4u w=0.21u l=0.15u
X5 a_16_183# wl1 a_16_183# vdd sky130_fd_pr__special_pfet_pass ad=0.035p pd=0.78u as=0p ps=0u w=0.07u l=0.15u
X6 a_38_133# wl1 bl1 gnd sky130_fd_pr__special_nfet_latch ad=0.3463p pd=4.93u as=0p ps=0u w=0.21u l=0.15u
X7 gnd gnd a_38_n79# gnd sky130_fd_pr__special_nfet_latch ad=0p pd=0u as=0.0252p ps=0.66u w=0.21u l=0.08u
X8 gnd gnd br1 gnd sky130_fd_pr__special_nfet_latch ad=0p pd=0u as=0p ps=0u w=0.21u l=0.08u
X9 a_38_133# a_16_183# gnd gnd sky130_fd_pr__special_nfet_latch ad=0p pd=0u as=0p ps=0u w=0.21u l=0.15u
X10 br0 wl0 a_16_183# gnd sky130_fd_pr__special_nfet_latch ad=0p pd=0u as=0.105p ps=1.84u w=0.21u l=0.15u
X11 gnd a_38_133# a_16_183# gnd sky130_fd_pr__special_nfet_latch ad=0p pd=0u as=0p ps=0u w=0.21u l=0.15u
X12 a_38_133# a_16_183# vdd vdd sky130_fd_pr__special_pfet_pass ad=0p pd=0u as=0.0364p ps=0.8u w=0.14u l=0.15u
X13 vdd a_38_133# a_16_183# vdd sky130_fd_pr__special_pfet_pass ad=0p pd=0u as=0p ps=0u w=0.14u l=0.15u
X14 bl0 wl0 a_38_133# gnd sky130_fd_pr__special_nfet_latch ad=0p pd=0u as=0.105p ps=1.84u w=0.21u l=0.15u
X15 gnd a_16_183# a_38_133# gnd sky130_fd_pr__special_nfet_latch ad=0p pd=0u as=0p ps=0u w=0.21u l=0.15u
.ends

.subckt subbyte2_bitcell_array bl_1_12 br_0_19 bl_1_23 wl_0_2 wl_0_15 wl_0_16 wl_0_17
+ wl_0_26 wl_0_37 wl_0_38 wl_0_48 wl_0_49 wl_1_53 wl_1_62 wl_1_63 vdd_uq222 vdd_uq318
+ vdd_uq446 vdd_uq478 vdd_uq510 vdd_uq638 vdd_uq670 vdd_uq830 vdd_uq990 sky130_fd_bd_sram__openram_dp_cell_447/a_38_n79#
+ sky130_fd_bd_sram__openram_dp_cell_1407/a_38_n79# sky130_fd_bd_sram__openram_dp_cell_0/a_400_n79#
+ sky130_fd_bd_sram__openram_dp_cell_960/a_400_n79# sky130_fd_bd_sram__openram_dp_cell_1024/a_400_n79#
+ sky130_fd_bd_sram__openram_dp_cell_576/a_38_n79# sky130_fd_bd_sram__openram_dp_cell_895/a_38_n79#
+ sky130_fd_bd_sram__openram_dp_cell_1536/a_38_n79# sky130_fd_bd_sram__openram_dp_cell_1855/a_38_n79#
+ sky130_fd_bd_sram__openram_dp_cell_767/a_400_n79# sky130_fd_bd_sram__openram_dp_cell_1471/a_400_n79#
+ sky130_fd_bd_sram__openram_dp_cell_2047/a_38_n79# sky130_fd_bd_sram__openram_dp_cell_1279/a_38_n79#
+ sky130_fd_bd_sram__openram_dp_cell_320/a_38_n79# sky130_fd_bd_sram__openram_dp_cell_1984/a_38_n79#
+ sky130_fd_bd_sram__openram_dp_cell_1023/a_38_n79# sky130_fd_bd_sram__openram_dp_cell_1535/a_400_n79#
+ sky130_fd_bd_sram__openram_dp_cell_320/a_400_n79# sky130_fd_bd_sram__openram_dp_cell_768/a_400_n79#
+ sky130_fd_bd_sram__openram_dp_cell_1472/a_400_n79# sky130_fd_bd_sram__openram_dp_cell_192/a_38_n79#
+ sky130_fd_bd_sram__openram_dp_cell_1152/a_38_n79# sky130_fd_bd_sram__openram_dp_cell_319/a_38_n79#
+ sky130_fd_bd_sram__openram_dp_cell_1471/a_38_n79# sky130_fd_bd_sram__openram_dp_cell_127/a_400_n79#
+ sky130_fd_bd_sram__openram_dp_cell_1279/a_400_n79# sky130_fd_bd_sram__openram_dp_cell_1536/a_400_n79#
+ sky130_fd_bd_sram__openram_dp_cell_64/a_38_n79# sky130_fd_bd_sram__openram_dp_cell_448/a_38_n79#
+ sky130_fd_bd_sram__openram_dp_cell_767/a_38_n79# sky130_fd_bd_sram__openram_dp_cell_1408/a_38_n79#
+ sky130_fd_bd_sram__openram_dp_cell_831/a_400_n79# sky130_fd_bd_sram__openram_dp_cell_1983/a_400_n79#
+ sky130_fd_bd_sram__openram_dp_cell_1727/a_38_n79# sky130_fd_bd_sram__openram_dp_cell_511/a_38_n79#
+ sky130_fd_bd_sram__openram_dp_cell_128/a_400_n79# sky130_fd_bd_sram__openram_dp_cell_896/a_38_n79#
+ sky130_fd_bd_sram__openram_dp_cell_1856/a_38_n79# sky130_fd_bd_sram__openram_dp_cell_575/a_400_n79#
+ sky130_fd_bd_sram__openram_dp_cell_1599/a_38_n79# sky130_fd_bd_sram__openram_dp_cell_640/a_38_n79#
+ sky130_fd_bd_sram__openram_dp_cell_832/a_400_n79# sky130_fd_bd_sram__openram_dp_cell_1984/a_400_n79#
+ sky130_fd_bd_sram__openram_dp_cell_1600/a_38_n79# sky130_fd_bd_sram__openram_dp_cell_0/a_38_n79#
+ sky130_fd_bd_sram__openram_dp_cell_383/a_38_n79# sky130_fd_bd_sram__openram_dp_cell_1024/a_38_n79#
+ sky130_fd_bd_sram__openram_dp_cell_1343/a_38_n79# sky130_fd_bd_sram__openram_dp_cell_639/a_400_n79#
+ sky130_fd_bd_sram__openram_dp_cell_1343/a_400_n79# sky130_fd_bd_sram__openram_dp_cell_576/a_400_n79#
+ sky130_fd_bd_sram__openram_dp_cell_1280/a_400_n79# sky130_fd_bd_sram__openram_dp_cell_1600/a_400_n79#
+ sky130_fd_bd_sram__openram_dp_cell_1472/a_38_n79# sky130_fd_bd_sram__openram_dp_cell_639/a_38_n79#
+ sky130_fd_bd_sram__openram_dp_cell_1791/a_38_n79# sky130_fd_bd_sram__openram_dp_cell_1087/a_400_n79#
+ sky130_fd_bd_sram__openram_dp_cell_1407/a_400_n79# sky130_fd_bd_sram__openram_dp_cell_1344/a_400_n79#
+ sky130_fd_bd_sram__openram_dp_cell_768/a_38_n79# sky130_fd_bd_sram__openram_dp_cell_1728/a_38_n79#
+ sky130_fd_bd_sram__openram_dp_cell_1791/a_400_n79# sky130_fd_bd_sram__openram_dp_cell_512/a_38_n79#
+ sky130_fd_bd_sram__openram_dp_cell_831/a_38_n79# sky130_fd_bd_sram__openram_dp_cell_1088/a_400_n79#
+ sky130_fd_bd_sram__openram_dp_cell_63/a_400_n79# sky130_fd_bd_sram__openram_dp_cell_1408/a_400_n79#
+ sky130_fd_bd_sram__openram_dp_cell_255/a_38_n79# sky130_fd_bd_sram__openram_dp_cell_383/a_400_n79#
+ sky130_fd_bd_sram__openram_dp_cell_1215/a_38_n79# sky130_fd_bd_sram__openram_dp_cell_703/a_400_n79#
+ sky130_fd_bd_sram__openram_dp_cell_1855/a_400_n79# sky130_fd_bd_sram__openram_dp_cell_960/a_38_n79#