*SPEF "ieee 1481-1999"
*DESIGN "s_box_maker"
*DATE "20:40:12 Friday May 03, 2024"
*VENDOR "The OpenROAD Project"
*PROGRAM "OpenROAD"
*VERSION "0889970d1790a2617e69f253221b8bd7626e51dc"
*DESIGN_FLOW "NAME_SCOPE LOCAL" "PIN_CAP NONE"
*DIVIDER /
*DELIMITER :
*BUS_DELIMITER []
*T_UNIT 1 NS
*C_UNIT 1 PF
*R_UNIT 1 OHM
*L_UNIT 1 HENRY

*NAME_MAP
*3 clk
*4 ram_ready
*5 reset
*6 wr_addr[0]
*7 wr_addr[1]
*8 wr_addr[2]
*9 wr_addr[3]
*10 wr_addr[4]
*11 wr_addr[5]
*12 wr_addr[6]
*13 wr_addr[7]
*14 wr_data[0]
*15 wr_data[1]
*16 wr_data[2]
*17 wr_data[3]
*18 wr_data[4]
*19 wr_data[5]
*20 wr_data[6]
*21 wr_data[7]
*22 wr_enable
*23 _000_
*24 _001_
*25 _002_
*26 _003_
*27 _004_
*28 _005_
*29 _006_
*30 _007_
*31 _008_
*32 _009_
*33 _010_
*34 _011_
*35 _012_
*36 _013_
*37 _014_
*38 _015_
*39 _016_
*40 _017_
*41 _018_
*42 _019_
*43 _020_
*44 _021_
*45 _022_
*46 _023_
*47 _024_
*48 _025_
*49 _026_
*50 _027_
*51 _028_
*52 _029_
*53 _030_
*54 _031_
*55 _032_
*56 _033_
*57 _034_
*58 _035_
*59 _036_
*60 _037_
*61 _038_
*62 _039_
*63 _040_
*64 _041_
*65 _042_
*66 _043_
*67 _044_
*68 _045_
*69 _046_
*70 _047_
*71 _048_
*72 _049_
*73 _050_
*74 _051_
*75 _052_
*76 _053_
*77 _054_
*78 _055_
*79 _056_
*80 _057_
*81 _058_
*82 _059_
*83 _060_
*84 _061_
*85 _062_
*86 _063_
*87 _064_
*88 _065_
*89 _066_
*90 _067_
*91 _068_
*92 _069_
*93 _070_
*94 _071_
*95 _072_
*96 _073_
*97 _074_
*98 _075_
*99 _076_
*100 _077_
*101 _078_
*102 _079_
*103 _080_
*104 _081_
*105 _082_
*106 _083_
*107 _084_
*108 _085_
*109 _086_
*110 _087_
*111 _088_
*112 _089_
*113 _090_
*114 _091_
*115 _092_
*116 _093_
*117 _094_
*118 _095_
*119 _096_
*120 _097_
*121 _098_
*122 _099_
*123 _100_
*124 _101_
*125 _102_
*126 _103_
*127 _104_
*128 _105_
*129 _106_
*130 _107_
*131 _108_
*132 _109_
*133 _110_
*134 _111_
*135 _112_
*136 _113_
*137 _114_
*138 _115_
*139 _116_
*140 _117_
*141 _118_
*142 _119_
*143 _120_
*144 _121_
*145 _122_
*146 _123_
*147 _124_
*148 _125_
*149 _126_
*150 _127_
*151 _128_
*152 _129_
*153 _130_
*154 _131_
*155 _132_
*156 _133_
*157 _134_
*158 _135_
*159 _136_
*160 _137_
*161 _138_
*162 _139_
*163 _140_
*164 _141_
*165 _142_
*166 _143_
*167 _144_
*168 _145_
*169 _146_
*170 _147_
*171 _148_
*172 _149_
*173 _150_
*174 _151_
*175 _152_
*176 _153_
*177 _154_
*178 _155_
*179 _156_
*180 _157_
*181 _158_
*182 _159_
*183 _160_
*184 _161_
*185 _162_
*186 _163_
*187 _164_
*188 _165_
*189 _166_
*190 _167_
*191 _168_
*192 _169_
*193 _170_
*194 _171_
*195 _172_
*196 _173_
*197 _174_
*198 _175_
*199 _176_
*200 _177_
*201 _178_
*202 _179_
*203 _180_
*204 _181_
*205 _182_
*206 _183_
*207 _184_
*208 _185_
*209 _186_
*210 _187_
*211 _188_
*212 _189_
*213 _190_
*214 _191_
*215 _192_
*216 _193_
*217 _194_
*218 _195_
*219 _196_
*220 _197_
*221 _198_
*222 _199_
*223 _200_
*224 _201_
*225 _202_
*226 _203_
*227 _204_
*228 _205_
*229 _206_
*230 _207_
*231 _208_
*232 _209_
*233 _210_
*234 _211_
*235 _212_
*236 _213_
*237 _214_
*238 _215_
*239 _216_
*240 _217_
*241 _218_
*242 _219_
*243 _220_
*244 _221_
*245 _222_
*246 _223_
*247 _224_
*248 _225_
*249 _226_
*250 _227_
*251 _228_
*252 _229_
*253 _230_
*254 _231_
*255 _232_
*256 _233_
*257 _234_
*258 _235_
*259 _236_
*260 _237_
*261 _238_
*262 _239_
*263 _240_
*264 _241_
*265 _242_
*266 _243_
*267 _244_
*268 _245_
*269 _246_
*270 _247_
*271 _248_
*272 _249_
*273 _250_
*274 _251_
*275 _252_
*276 _253_
*277 _254_
*278 _255_
*279 _256_
*280 _257_
*281 _258_
*282 _259_
*283 _260_
*284 _261_
*285 _262_
*286 _263_
*287 _264_
*288 _265_
*289 _266_
*290 _267_
*291 _268_
*292 _269_
*293 _270_
*294 _271_
*295 _272_
*296 _273_
*297 _274_
*298 _275_
*299 _276_
*300 _277_
*301 _278_
*302 _279_
*303 _280_
*304 _281_
*305 _282_
*306 _283_
*307 _284_
*308 _285_
*309 _286_
*310 _287_
*311 _288_
*312 _289_
*313 _290_
*314 _291_
*315 _292_
*316 _293_
*317 _294_
*318 _295_
*319 _296_
*320 _297_
*321 _298_
*322 _299_
*323 _300_
*324 _301_
*325 _302_
*326 _303_
*327 _304_
*328 _305_
*329 _306_
*330 _307_
*331 _308_
*332 _309_
*333 _310_
*334 _311_
*335 _312_
*336 _313_
*337 _314_
*338 _315_
*339 _316_
*340 _317_
*341 _318_
*342 _319_
*343 _320_
*344 _321_
*345 _322_
*346 _323_
*347 _324_
*348 _325_
*349 _326_
*350 _327_
*351 _328_
*352 _329_
*353 _330_
*354 _331_
*355 _332_
*356 _333_
*357 _334_
*358 _335_
*359 _336_
*360 _337_
*361 _338_
*362 _339_
*363 _340_
*364 _341_
*365 _342_
*366 _343_
*367 _344_
*368 _345_
*369 _346_
*370 _347_
*371 _348_
*372 _349_
*373 _350_
*374 _351_
*375 _352_
*376 _353_
*377 _354_
*378 _355_
*379 _356_
*380 _357_
*381 _358_
*382 _359_
*383 _360_
*384 _361_
*385 _362_
*386 _363_
*387 _364_
*388 _365_
*389 _366_
*390 _367_
*391 _368_
*392 _369_
*393 _370_
*394 _371_
*395 _372_
*396 _373_
*397 _374_
*398 _375_
*399 _376_
*400 _377_
*401 _378_
*402 _379_
*403 _380_
*404 _381_
*405 _382_
*406 _383_
*407 _384_
*408 _385_
*409 _386_
*410 _387_
*411 _388_
*412 _389_
*413 _390_
*414 _391_
*415 _392_
*416 _393_
*417 _394_
*418 _395_
*419 _396_
*420 _397_
*421 _398_
*422 _399_
*423 _400_
*424 _401_
*425 _402_
*426 _403_
*427 _404_
*428 _405_
*429 _406_
*430 _407_
*431 _408_
*432 _409_
*433 _410_
*434 _411_
*435 _412_
*436 _413_
*437 _414_
*438 _415_
*439 _416_
*440 _417_
*441 _418_
*442 _419_
*443 _420_
*444 _421_
*445 _422_
*446 _423_
*447 _424_
*448 _425_
*449 _426_
*450 _427_
*451 _428_
*452 _429_
*453 _430_
*454 _431_
*455 _432_
*456 _433_
*457 _434_
*458 _435_
*459 _436_
*460 _437_
*461 _438_
*462 _439_
*463 _440_
*464 _441_
*465 _442_
*466 _443_
*467 _444_
*468 _445_
*469 _446_
*470 _447_
*471 _448_
*472 _449_
*473 _450_
*474 _451_
*475 _452_
*476 _453_
*477 _454_
*478 _455_
*479 net1
*480 net10
*481 net11
*482 net12
*483 net13
*484 net14
*485 net15
*486 net16
*487 net17
*488 net18
*489 net19
*490 net2
*491 net20
*492 net21
*493 net22
*494 net23
*495 net24
*496 net3
*497 net4
*498 net5
*499 net6
*500 net7
*501 net8
*502 net9
*503 FILLER_0_0_105
*504 FILLER_0_0_111
*505 FILLER_0_0_113
*506 FILLER_0_0_119
*507 FILLER_0_0_126
*508 FILLER_0_0_147
*509 FILLER_0_0_15
*510 FILLER_0_0_154
*511 FILLER_0_0_163
*512 FILLER_0_0_167
*513 FILLER_0_0_169
*514 FILLER_0_0_189
*515 FILLER_0_0_195
*516 FILLER_0_0_197
*517 FILLER_0_0_209
*518 FILLER_0_0_221
*519 FILLER_0_0_225
*520 FILLER_0_0_237
*521 FILLER_0_0_249
*522 FILLER_0_0_253
*523 FILLER_0_0_265
*524 FILLER_0_0_27
*525 FILLER_0_0_277
*526 FILLER_0_0_281
*527 FILLER_0_0_29
*528 FILLER_0_0_293
*529 FILLER_0_0_3
*530 FILLER_0_0_41
*531 FILLER_0_0_53
*532 FILLER_0_0_57
*533 FILLER_0_0_69
*534 FILLER_0_0_81
*535 FILLER_0_0_85
*536 FILLER_0_0_97
*537 FILLER_0_10_103
*538 FILLER_0_10_109
*539 FILLER_0_10_15
*540 FILLER_0_10_181
*541 FILLER_0_10_188
*542 FILLER_0_10_209
*543 FILLER_0_10_219
*544 FILLER_0_10_231
*545 FILLER_0_10_243
*546 FILLER_0_10_251
*547 FILLER_0_10_253
*548 FILLER_0_10_265
*549 FILLER_0_10_27
*550 FILLER_0_10_277
*551 FILLER_0_10_289
*552 FILLER_0_10_29
*553 FILLER_0_10_297
*554 FILLER_0_10_3
*555 FILLER_0_10_41
*556 FILLER_0_10_53
*557 FILLER_0_10_65
*558 FILLER_0_10_77
*559 FILLER_0_10_83
*560 FILLER_0_10_85
*561 FILLER_0_11_102
*562 FILLER_0_11_108
*563 FILLER_0_11_119
*564 FILLER_0_11_140
*565 FILLER_0_11_147
*566 FILLER_0_11_15
*567 FILLER_0_11_185
*568 FILLER_0_11_212
*569 FILLER_0_11_223
*570 FILLER_0_11_225
*571 FILLER_0_11_232
*572 FILLER_0_11_244
*573 FILLER_0_11_256
*574 FILLER_0_11_268
*575 FILLER_0_11_27
*576 FILLER_0_11_281
*577 FILLER_0_11_293
*578 FILLER_0_11_3
*579 FILLER_0_11_39
*580 FILLER_0_11_51
*581 FILLER_0_11_55
*582 FILLER_0_11_57
*583 FILLER_0_11_69
*584 FILLER_0_11_81
*585 FILLER_0_11_93
*586 FILLER_0_12_103
*587 FILLER_0_12_119
*588 FILLER_0_12_132
*589 FILLER_0_12_141
*590 FILLER_0_12_15
*591 FILLER_0_12_164
*592 FILLER_0_12_168
*593 FILLER_0_12_197
*594 FILLER_0_12_225
*595 FILLER_0_12_232
*596 FILLER_0_12_244
*597 FILLER_0_12_253
*598 FILLER_0_12_265
*599 FILLER_0_12_27
*600 FILLER_0_12_277
*601 FILLER_0_12_289
*602 FILLER_0_12_29
*603 FILLER_0_12_297
*604 FILLER_0_12_3
*605 FILLER_0_12_41
*606 FILLER_0_12_53
*607 FILLER_0_12_65
*608 FILLER_0_12_77
*609 FILLER_0_12_83
*610 FILLER_0_12_94
*611 FILLER_0_13_105
*612 FILLER_0_13_111
*613 FILLER_0_13_128
*614 FILLER_0_13_15
*615 FILLER_0_13_169
*616 FILLER_0_13_184
*617 FILLER_0_13_198
*618 FILLER_0_13_243
*619 FILLER_0_13_255
*620 FILLER_0_13_267
*621 FILLER_0_13_27
*622 FILLER_0_13_279
*623 FILLER_0_13_281
*624 FILLER_0_13_293
*625 FILLER_0_13_3
*626 FILLER_0_13_39
*627 FILLER_0_13_51
*628 FILLER_0_13_55
*629 FILLER_0_13_57
*630 FILLER_0_13_69
*631 FILLER_0_13_77
*632 FILLER_0_13_95
*633 FILLER_0_14_109
*634 FILLER_0_14_117
*635 FILLER_0_14_126
*636 FILLER_0_14_160
*637 FILLER_0_14_171
*638 FILLER_0_14_183
*639 FILLER_0_14_190
*640 FILLER_0_14_21
*641 FILLER_0_14_221
*642 FILLER_0_14_235
*643 FILLER_0_14_247
*644 FILLER_0_14_251
*645 FILLER_0_14_253
*646 FILLER_0_14_265
*647 FILLER_0_14_27
*648 FILLER_0_14_277
*649 FILLER_0_14_289
*650 FILLER_0_14_29
*651 FILLER_0_14_297
*652 FILLER_0_14_41
*653 FILLER_0_14_53
*654 FILLER_0_14_65
*655 FILLER_0_14_85
*656 FILLER_0_14_9
*657 FILLER_0_14_97
*658 FILLER_0_15_101
*659 FILLER_0_15_107
*660 FILLER_0_15_111
*661 FILLER_0_15_113
*662 FILLER_0_15_119
*663 FILLER_0_15_128
*664 FILLER_0_15_132
*665 FILLER_0_15_142
*666 FILLER_0_15_15
*667 FILLER_0_15_167
*668 FILLER_0_15_187
*669 FILLER_0_15_243
*670 FILLER_0_15_255
*671 FILLER_0_15_267
*672 FILLER_0_15_27
*673 FILLER_0_15_279
*674 FILLER_0_15_281
*675 FILLER_0_15_293
*676 FILLER_0_15_3
*677 FILLER_0_15_39
*678 FILLER_0_15_51
*679 FILLER_0_15_55
*680 FILLER_0_15_57
*681 FILLER_0_15_69
*682 FILLER_0_15_81
*683 FILLER_0_15_93
*684 FILLER_0_16_101
*685 FILLER_0_16_129
*686 FILLER_0_16_139
*687 FILLER_0_16_141
*688 FILLER_0_16_148
*689 FILLER_0_16_15
*690 FILLER_0_16_157
*691 FILLER_0_16_161
*692 FILLER_0_16_168
*693 FILLER_0_16_185
*694 FILLER_0_16_193
*695 FILLER_0_16_212
*696 FILLER_0_16_223
*697 FILLER_0_16_238
*698 FILLER_0_16_250
*699 FILLER_0_16_253
*700 FILLER_0_16_265
*701 FILLER_0_16_27
*702 FILLER_0_16_277
*703 FILLER_0_16_289
*704 FILLER_0_16_29
*705 FILLER_0_16_297
*706 FILLER_0_16_3
*707 FILLER_0_16_41
*708 FILLER_0_16_53
*709 FILLER_0_16_65
*710 FILLER_0_16_71
*711 FILLER_0_16_92
*712 FILLER_0_17_110
*713 FILLER_0_17_113
*714 FILLER_0_17_124
*715 FILLER_0_17_136
*716 FILLER_0_17_145
*717 FILLER_0_17_15
*718 FILLER_0_17_153
*719 FILLER_0_17_160
*720 FILLER_0_17_166
*721 FILLER_0_17_183
*722 FILLER_0_17_222
*723 FILLER_0_17_240
*724 FILLER_0_17_252
*725 FILLER_0_17_264
*726 FILLER_0_17_27
*727 FILLER_0_17_276
*728 FILLER_0_17_281
*729 FILLER_0_17_293
*730 FILLER_0_17_3
*731 FILLER_0_17_39
*732 FILLER_0_17_51
*733 FILLER_0_17_55
*734 FILLER_0_17_57
*735 FILLER_0_17_61
*736 FILLER_0_17_69
*737 FILLER_0_17_92
*738 FILLER_0_17_98
*739 FILLER_0_18_101
*740 FILLER_0_18_107
*741 FILLER_0_18_111
*742 FILLER_0_18_127
*743 FILLER_0_18_138
*744 FILLER_0_18_15
*745 FILLER_0_18_165
*746 FILLER_0_18_176
*747 FILLER_0_18_185
*748 FILLER_0_18_193
*749 FILLER_0_18_197
*750 FILLER_0_18_209
*751 FILLER_0_18_221
*752 FILLER_0_18_229
*753 FILLER_0_18_236
*754 FILLER_0_18_248
*755 FILLER_0_18_253
*756 FILLER_0_18_265
*757 FILLER_0_18_27
*758 FILLER_0_18_277
*759 FILLER_0_18_289
*760 FILLER_0_18_29
*761 FILLER_0_18_297
*762 FILLER_0_18_3
*763 FILLER_0_18_41
*764 FILLER_0_18_49
*765 FILLER_0_18_68
*766 FILLER_0_18_80
*767 FILLER_0_18_93
*768 FILLER_0_19_111
*769 FILLER_0_19_116
*770 FILLER_0_19_124
*771 FILLER_0_19_140
*772 FILLER_0_19_148
*773 FILLER_0_19_162
*774 FILLER_0_19_189
*775 FILLER_0_19_21
*776 FILLER_0_19_221
*777 FILLER_0_19_240
*778 FILLER_0_19_252
*779 FILLER_0_19_264
*780 FILLER_0_19_276
*781 FILLER_0_19_281
*782 FILLER_0_19_293
*783 FILLER_0_19_33
*784 FILLER_0_19_45
*785 FILLER_0_19_53
*786 FILLER_0_19_57
*787 FILLER_0_19_61
*788 FILLER_0_19_71
*789 FILLER_0_19_84
*790 FILLER_0_19_9
*791 FILLER_0_19_92
*792 FILLER_0_19_98
*793 FILLER_0_1_105
*794 FILLER_0_1_111
*795 FILLER_0_1_113
*796 FILLER_0_1_125
*797 FILLER_0_1_137
*798 FILLER_0_1_149
*799 FILLER_0_1_15
*800 FILLER_0_1_161
*801 FILLER_0_1_167
*802 FILLER_0_1_169
*803 FILLER_0_1_181
*804 FILLER_0_1_193
*805 FILLER_0_1_205
*806 FILLER_0_1_217
*807 FILLER_0_1_223
*808 FILLER_0_1_225
*809 FILLER_0_1_237
*810 FILLER_0_1_249
*811 FILLER_0_1_261
*812 FILLER_0_1_27
*813 FILLER_0_1_273
*814 FILLER_0_1_279
*815 FILLER_0_1_281
*816 FILLER_0_1_293
*817 FILLER_0_1_3
*818 FILLER_0_1_39
*819 FILLER_0_1_51
*820 FILLER_0_1_55
*821 FILLER_0_1_57
*822 FILLER_0_1_69
*823 FILLER_0_1_81
*824 FILLER_0_1_93
*825 FILLER_0_20_107
*826 FILLER_0_20_119
*827 FILLER_0_20_126
*828 FILLER_0_20_136
*829 FILLER_0_20_147
*830 FILLER_0_20_15
*831 FILLER_0_20_158
*832 FILLER_0_20_170
*833 FILLER_0_20_180
*834 FILLER_0_20_191
*835 FILLER_0_20_195
*836 FILLER_0_20_216
*837 FILLER_0_20_228
*838 FILLER_0_20_239
*839 FILLER_0_20_251
*840 FILLER_0_20_253
*841 FILLER_0_20_265
*842 FILLER_0_20_27
*843 FILLER_0_20_277
*844 FILLER_0_20_289
*845 FILLER_0_20_29
*846 FILLER_0_20_297
*847 FILLER_0_20_3
*848 FILLER_0_20_41
*849 FILLER_0_20_53
*850 FILLER_0_20_73
*851 FILLER_0_20_81
*852 FILLER_0_20_91
*853 FILLER_0_21_102
*854 FILLER_0_21_110
*855 FILLER_0_21_120
*856 FILLER_0_21_128
*857 FILLER_0_21_140
*858 FILLER_0_21_15
*859 FILLER_0_21_160
*860 FILLER_0_21_182
*861 FILLER_0_21_201
*862 FILLER_0_21_205
*863 FILLER_0_21_211
*864 FILLER_0_21_217
*865 FILLER_0_21_241
*866 FILLER_0_21_253
*867 FILLER_0_21_265
*868 FILLER_0_21_27
*869 FILLER_0_21_277
*870 FILLER_0_21_281
*871 FILLER_0_21_293
*872 FILLER_0_21_3
*873 FILLER_0_21_39
*874 FILLER_0_21_51
*875 FILLER_0_21_55
*876 FILLER_0_21_61
*877 FILLER_0_21_73
*878 FILLER_0_21_85
*879 FILLER_0_21_93
*880 FILLER_0_22_109
*881 FILLER_0_22_121
*882 FILLER_0_22_135
*883 FILLER_0_22_139
*884 FILLER_0_22_15
*885 FILLER_0_22_156
*886 FILLER_0_22_168
*887 FILLER_0_22_187
*888 FILLER_0_22_195
*889 FILLER_0_22_202
*890 FILLER_0_22_206
*891 FILLER_0_22_240
*892 FILLER_0_22_253
*893 FILLER_0_22_265
*894 FILLER_0_22_27
*895 FILLER_0_22_277
*896 FILLER_0_22_289
*897 FILLER_0_22_29
*898 FILLER_0_22_297
*899 FILLER_0_22_3
*900 FILLER_0_22_41
*901 FILLER_0_22_53
*902 FILLER_0_22_61
*903 FILLER_0_22_73
*904 FILLER_0_22_93
*905 FILLER_0_23_105
*906 FILLER_0_23_111
*907 FILLER_0_23_128
*908 FILLER_0_23_132
*909 FILLER_0_23_15
*910 FILLER_0_23_153
*911 FILLER_0_23_157
*912 FILLER_0_23_166
*913 FILLER_0_23_175
*914 FILLER_0_23_184
*915 FILLER_0_23_195
*916 FILLER_0_23_213
*917 FILLER_0_23_221
*918 FILLER_0_23_231
*919 FILLER_0_23_243
*920 FILLER_0_23_255
*921 FILLER_0_23_267
*922 FILLER_0_23_27
*923 FILLER_0_23_279
*924 FILLER_0_23_281
*925 FILLER_0_23_293
*926 FILLER_0_23_3
*927 FILLER_0_23_39
*928 FILLER_0_23_57
*929 FILLER_0_23_79
*930 FILLER_0_23_87
*931 FILLER_0_24_101
*932 FILLER_0_24_113
*933 FILLER_0_24_120
*934 FILLER_0_24_132
*935 FILLER_0_24_141
*936 FILLER_0_24_153
*937 FILLER_0_24_162
*938 FILLER_0_24_195
*939 FILLER_0_24_197
*940 FILLER_0_24_205
*941 FILLER_0_24_21
*942 FILLER_0_24_214
*943 FILLER_0_24_220
*944 FILLER_0_24_239
*945 FILLER_0_24_251
*946 FILLER_0_24_253
*947 FILLER_0_24_265
*948 FILLER_0_24_27
*949 FILLER_0_24_277
*950 FILLER_0_24_289
*951 FILLER_0_24_29
*952 FILLER_0_24_297
*953 FILLER_0_24_41
*954 FILLER_0_24_53
*955 FILLER_0_24_65
*956 FILLER_0_24_77
*957 FILLER_0_24_85
*958 FILLER_0_24_9
*959 FILLER_0_24_93
*960 FILLER_0_25_106
*961 FILLER_0_25_121
*962 FILLER_0_25_130
*963 FILLER_0_25_139
*964 FILLER_0_25_146
*965 FILLER_0_25_15
*966 FILLER_0_25_152
*967 FILLER_0_25_160
*968 FILLER_0_25_167
*969 FILLER_0_25_169
*970 FILLER_0_25_181
*971 FILLER_0_25_191
*972 FILLER_0_25_198
*973 FILLER_0_25_202
*974 FILLER_0_25_217
*975 FILLER_0_25_223
*976 FILLER_0_25_225
*977 FILLER_0_25_239
*978 FILLER_0_25_251
*979 FILLER_0_25_263
*980 FILLER_0_25_27
*981 FILLER_0_25_275
*982 FILLER_0_25_279
*983 FILLER_0_25_281
*984 FILLER_0_25_293
*985 FILLER_0_25_3
*986 FILLER_0_25_39
*987 FILLER_0_25_51
*988 FILLER_0_25_55
*989 FILLER_0_25_57
*990 FILLER_0_25_70
*991 FILLER_0_25_76
*992 FILLER_0_25_85
*993 FILLER_0_25_97
*994 FILLER_0_26_112
*995 FILLER_0_26_141
*996 FILLER_0_26_163
*997 FILLER_0_26_177
*998 FILLER_0_26_188
*999 FILLER_0_26_21
*1000 FILLER_0_26_224
*1001 FILLER_0_26_237
*1002 FILLER_0_26_249
*1003 FILLER_0_26_253
*1004 FILLER_0_26_265
*1005 FILLER_0_26_27
*1006 FILLER_0_26_277
*1007 FILLER_0_26_289
*1008 FILLER_0_26_29
*1009 FILLER_0_26_297
*1010 FILLER_0_26_41
*1011 FILLER_0_26_74
*1012 FILLER_0_26_83
*1013 FILLER_0_26_85
*1014 FILLER_0_26_9
*1015 FILLER_0_27_109
*1016 FILLER_0_27_113
*1017 FILLER_0_27_125
*1018 FILLER_0_27_139
*1019 FILLER_0_27_156
*1020 FILLER_0_27_167
*1021 FILLER_0_27_174
*1022 FILLER_0_27_183
*1023 FILLER_0_27_195
*1024 FILLER_0_27_207
*1025 FILLER_0_27_21
*1026 FILLER_0_27_211
*1027 FILLER_0_27_221
*1028 FILLER_0_27_239
*1029 FILLER_0_27_251
*1030 FILLER_0_27_263
*1031 FILLER_0_27_275
*1032 FILLER_0_27_279
*1033 FILLER_0_27_281
*1034 FILLER_0_27_293
*1035 FILLER_0_27_33
*1036 FILLER_0_27_45
*1037 FILLER_0_27_53
*1038 FILLER_0_27_57
*1039 FILLER_0_27_69
*1040 FILLER_0_27_82
*1041 FILLER_0_27_89
*1042 FILLER_0_27_9
*1043 FILLER_0_27_97
*1044 FILLER_0_28_119
*1045 FILLER_0_28_138
*1046 FILLER_0_28_141
*1047 FILLER_0_28_15
*1048 FILLER_0_28_155
*1049 FILLER_0_28_167
*1050 FILLER_0_28_174
*1051 FILLER_0_28_186
*1052 FILLER_0_28_200
*1053 FILLER_0_28_208
*1054 FILLER_0_28_217
*1055 FILLER_0_28_225
*1056 FILLER_0_28_231
*1057 FILLER_0_28_243
*1058 FILLER_0_28_251
*1059 FILLER_0_28_253
*1060 FILLER_0_28_265
*1061 FILLER_0_28_27
*1062 FILLER_0_28_277
*1063 FILLER_0_28_289
*1064 FILLER_0_28_29
*1065 FILLER_0_28_297
*1066 FILLER_0_28_3
*1067 FILLER_0_28_41
*1068 FILLER_0_28_49
*1069 FILLER_0_28_83
*1070 FILLER_0_29_104
*1071 FILLER_0_29_113
*1072 FILLER_0_29_117
*1073 FILLER_0_29_125
*1074 FILLER_0_29_140
*1075 FILLER_0_29_15
*1076 FILLER_0_29_152
*1077 FILLER_0_29_167
*1078 FILLER_0_29_181
*1079 FILLER_0_29_189
*1080 FILLER_0_29_196
*1081 FILLER_0_29_221
*1082 FILLER_0_29_233
*1083 FILLER_0_29_245
*1084 FILLER_0_29_257
*1085 FILLER_0_29_269
*1086 FILLER_0_29_27
*1087 FILLER_0_29_277
*1088 FILLER_0_29_281
*1089 FILLER_0_29_293
*1090 FILLER_0_29_3
*1091 FILLER_0_29_39
*1092 FILLER_0_29_51
*1093 FILLER_0_29_55
*1094 FILLER_0_29_57
*1095 FILLER_0_29_69
*1096 FILLER_0_29_77
*1097 FILLER_0_29_85
*1098 FILLER_0_29_90
*1099 FILLER_0_29_96
*1100 FILLER_0_2_109
*1101 FILLER_0_2_121
*1102 FILLER_0_2_133
*1103 FILLER_0_2_139
*1104 FILLER_0_2_141
*1105 FILLER_0_2_15
*1106 FILLER_0_2_153
*1107 FILLER_0_2_165
*1108 FILLER_0_2_177
*1109 FILLER_0_2_189
*1110 FILLER_0_2_195
*1111 FILLER_0_2_197
*1112 FILLER_0_2_209
*1113 FILLER_0_2_221
*1114 FILLER_0_2_233
*1115 FILLER_0_2_245
*1116 FILLER_0_2_251
*1117 FILLER_0_2_253
*1118 FILLER_0_2_265
*1119 FILLER_0_2_27
*1120 FILLER_0_2_277
*1121 FILLER_0_2_289
*1122 FILLER_0_2_29
*1123 FILLER_0_2_297
*1124 FILLER_0_2_3
*1125 FILLER_0_2_41
*1126 FILLER_0_2_53
*1127 FILLER_0_2_65
*1128 FILLER_0_2_77
*1129 FILLER_0_2_83
*1130 FILLER_0_2_85
*1131 FILLER_0_2_97
*1132 FILLER_0_30_102
*1133 FILLER_0_30_123
*1134 FILLER_0_30_131
*1135 FILLER_0_30_141
*1136 FILLER_0_30_15
*1137 FILLER_0_30_153
*1138 FILLER_0_30_167
*1139 FILLER_0_30_184
*1140 FILLER_0_30_193
*1141 FILLER_0_30_203
*1142 FILLER_0_30_210
*1143 FILLER_0_30_218
*1144 FILLER_0_30_234
*1145 FILLER_0_30_246
*1146 FILLER_0_30_253
*1147 FILLER_0_30_265
*1148 FILLER_0_30_27
*1149 FILLER_0_30_277
*1150 FILLER_0_30_289
*1151 FILLER_0_30_29
*1152 FILLER_0_30_297
*1153 FILLER_0_30_3
*1154 FILLER_0_30_41
*1155 FILLER_0_30_53
*1156 FILLER_0_30_61
*1157 FILLER_0_30_81
*1158 FILLER_0_30_90
*1159 FILLER_0_31_110
*1160 FILLER_0_31_113
*1161 FILLER_0_31_123
*1162 FILLER_0_31_132
*1163 FILLER_0_31_138
*1164 FILLER_0_31_15
*1165 FILLER_0_31_152
*1166 FILLER_0_31_163
*1167 FILLER_0_31_167
*1168 FILLER_0_31_169
*1169 FILLER_0_31_177
*1170 FILLER_0_31_186
*1171 FILLER_0_31_197
*1172 FILLER_0_31_209
*1173 FILLER_0_31_221
*1174 FILLER_0_31_225
*1175 FILLER_0_31_237
*1176 FILLER_0_31_249
*1177 FILLER_0_31_261
*1178 FILLER_0_31_27
*1179 FILLER_0_31_273
*1180 FILLER_0_31_279
*1181 FILLER_0_31_281
*1182 FILLER_0_31_293
*1183 FILLER_0_31_3
*1184 FILLER_0_31_39
*1185 FILLER_0_31_51
*1186 FILLER_0_31_55
*1187 FILLER_0_31_57
*1188 FILLER_0_31_63
*1189 FILLER_0_31_69
*1190 FILLER_0_31_75
*1191 FILLER_0_32_124
*1192 FILLER_0_32_136
*1193 FILLER_0_32_15
*1194 FILLER_0_32_151
*1195 FILLER_0_32_159
*1196 FILLER_0_32_169
*1197 FILLER_0_32_189
*1198 FILLER_0_32_197
*1199 FILLER_0_32_220
*1200 FILLER_0_32_240
*1201 FILLER_0_32_253
*1202 FILLER_0_32_265
*1203 FILLER_0_32_27
*1204 FILLER_0_32_277
*1205 FILLER_0_32_289
*1206 FILLER_0_32_29
*1207 FILLER_0_32_297
*1208 FILLER_0_32_3
*1209 FILLER_0_32_41
*1210 FILLER_0_32_53
*1211 FILLER_0_32_61
*1212 FILLER_0_32_82
*1213 FILLER_0_32_85
*1214 FILLER_0_32_93
*1215 FILLER_0_33_106
*1216 FILLER_0_33_140
*1217 FILLER_0_33_148
*1218 FILLER_0_33_15
*1219 FILLER_0_33_164
*1220 FILLER_0_33_184
*1221 FILLER_0_33_192
*1222 FILLER_0_33_204
*1223 FILLER_0_33_212
*1224 FILLER_0_33_222
*1225 FILLER_0_33_225
*1226 FILLER_0_33_229
*1227 FILLER_0_33_236
*1228 FILLER_0_33_248
*1229 FILLER_0_33_260
*1230 FILLER_0_33_27
*1231 FILLER_0_33_272
*1232 FILLER_0_33_281
*1233 FILLER_0_33_293
*1234 FILLER_0_33_3
*1235 FILLER_0_33_39
*1236 FILLER_0_33_51
*1237 FILLER_0_33_55
*1238 FILLER_0_33_57
*1239 FILLER_0_33_69
*1240 FILLER_0_33_81
*1241 FILLER_0_33_85
*1242 FILLER_0_33_90
*1243 FILLER_0_33_94
*1244 FILLER_0_34_100
*1245 FILLER_0_34_110
*1246 FILLER_0_34_119
*1247 FILLER_0_34_128
*1248 FILLER_0_34_132
*1249 FILLER_0_34_141
*1250 FILLER_0_34_15
*1251 FILLER_0_34_163
*1252 FILLER_0_34_174
*1253 FILLER_0_34_197
*1254 FILLER_0_34_223
*1255 FILLER_0_34_235
*1256 FILLER_0_34_247
*1257 FILLER_0_34_251
*1258 FILLER_0_34_253
*1259 FILLER_0_34_265
*1260 FILLER_0_34_27
*1261 FILLER_0_34_277
*1262 FILLER_0_34_289
*1263 FILLER_0_34_29
*1264 FILLER_0_34_297
*1265 FILLER_0_34_3
*1266 FILLER_0_34_41
*1267 FILLER_0_34_53
*1268 FILLER_0_34_59
*1269 FILLER_0_34_80
*1270 FILLER_0_34_85
*1271 FILLER_0_35_108
*1272 FILLER_0_35_113
*1273 FILLER_0_35_123
*1274 FILLER_0_35_146
*1275 FILLER_0_35_154
*1276 FILLER_0_35_169
*1277 FILLER_0_35_176
*1278 FILLER_0_35_194
*1279 FILLER_0_35_208
*1280 FILLER_0_35_21
*1281 FILLER_0_35_225
*1282 FILLER_0_35_237
*1283 FILLER_0_35_249
*1284 FILLER_0_35_261
*1285 FILLER_0_35_273
*1286 FILLER_0_35_279
*1287 FILLER_0_35_281
*1288 FILLER_0_35_293
*1289 FILLER_0_35_33
*1290 FILLER_0_35_45
*1291 FILLER_0_35_53
*1292 FILLER_0_35_57
*1293 FILLER_0_35_69
*1294 FILLER_0_35_73
*1295 FILLER_0_35_85
*1296 FILLER_0_35_9
*1297 FILLER_0_35_95
*1298 FILLER_0_35_99
*1299 FILLER_0_36_101
*1300 FILLER_0_36_114
*1301 FILLER_0_36_123
*1302 FILLER_0_36_127
*1303 FILLER_0_36_135
*1304 FILLER_0_36_139
*1305 FILLER_0_36_141
*1306 FILLER_0_36_15
*1307 FILLER_0_36_155
*1308 FILLER_0_36_167
*1309 FILLER_0_36_190
*1310 FILLER_0_36_208
*1311 FILLER_0_36_220
*1312 FILLER_0_36_232
*1313 FILLER_0_36_244
*1314 FILLER_0_36_253
*1315 FILLER_0_36_265
*1316 FILLER_0_36_27
*1317 FILLER_0_36_277
*1318 FILLER_0_36_289
*1319 FILLER_0_36_29
*1320 FILLER_0_36_297
*1321 FILLER_0_36_3
*1322 FILLER_0_36_41
*1323 FILLER_0_36_53
*1324 FILLER_0_36_65
*1325 FILLER_0_36_77
*1326 FILLER_0_36_83
*1327 FILLER_0_37_105
*1328 FILLER_0_37_111
*1329 FILLER_0_37_113
*1330 FILLER_0_37_130
*1331 FILLER_0_37_142
*1332 FILLER_0_37_154
*1333 FILLER_0_37_166
*1334 FILLER_0_37_169
*1335 FILLER_0_37_18
*1336 FILLER_0_37_181
*1337 FILLER_0_37_193
*1338 FILLER_0_37_205
*1339 FILLER_0_37_217
*1340 FILLER_0_37_223
*1341 FILLER_0_37_225
*1342 FILLER_0_37_237
*1343 FILLER_0_37_249
*1344 FILLER_0_37_261
*1345 FILLER_0_37_273
*1346 FILLER_0_37_279
*1347 FILLER_0_37_281
*1348 FILLER_0_37_293
*1349 FILLER_0_37_30
*1350 FILLER_0_37_42
*1351 FILLER_0_37_54
*1352 FILLER_0_37_57
*1353 FILLER_0_37_6
*1354 FILLER_0_37_69
*1355 FILLER_0_37_81
*1356 FILLER_0_37_93
*1357 FILLER_0_38_109
*1358 FILLER_0_38_121
*1359 FILLER_0_38_133
*1360 FILLER_0_38_139
*1361 FILLER_0_38_141
*1362 FILLER_0_38_145
*1363 FILLER_0_38_15
*1364 FILLER_0_38_162
*1365 FILLER_0_38_174
*1366 FILLER_0_38_191
*1367 FILLER_0_38_195
*1368 FILLER_0_38_197
*1369 FILLER_0_38_209
*1370 FILLER_0_38_221
*1371 FILLER_0_38_233
*1372 FILLER_0_38_245
*1373 FILLER_0_38_251
*1374 FILLER_0_38_253
*1375 FILLER_0_38_265
*1376 FILLER_0_38_27
*1377 FILLER_0_38_277
*1378 FILLER_0_38_289
*1379 FILLER_0_38_29
*1380 FILLER_0_38_297
*1381 FILLER_0_38_3
*1382 FILLER_0_38_41
*1383 FILLER_0_38_53
*1384 FILLER_0_38_65
*1385 FILLER_0_38_77
*1386 FILLER_0_38_83
*1387 FILLER_0_38_85
*1388 FILLER_0_38_97
*1389 FILLER_0_39_105
*1390 FILLER_0_39_111
*1391 FILLER_0_39_113
*1392 FILLER_0_39_125
*1393 FILLER_0_39_137
*1394 FILLER_0_39_149
*1395 FILLER_0_39_15
*1396 FILLER_0_39_161
*1397 FILLER_0_39_167
*1398 FILLER_0_39_169
*1399 FILLER_0_39_181
*1400 FILLER_0_39_193
*1401 FILLER_0_39_205
*1402 FILLER_0_39_217
*1403 FILLER_0_39_223
*1404 FILLER_0_39_225
*1405 FILLER_0_39_237
*1406 FILLER_0_39_249
*1407 FILLER_0_39_261
*1408 FILLER_0_39_27
*1409 FILLER_0_39_273
*1410 FILLER_0_39_279
*1411 FILLER_0_39_281
*1412 FILLER_0_39_293
*1413 FILLER_0_39_3
*1414 FILLER_0_39_39
*1415 FILLER_0_39_51
*1416 FILLER_0_39_55
*1417 FILLER_0_39_57
*1418 FILLER_0_39_69
*1419 FILLER_0_39_81
*1420 FILLER_0_39_93
*1421 FILLER_0_3_105
*1422 FILLER_0_3_111
*1423 FILLER_0_3_113
*1424 FILLER_0_3_125
*1425 FILLER_0_3_137
*1426 FILLER_0_3_149
*1427 FILLER_0_3_15
*1428 FILLER_0_3_161
*1429 FILLER_0_3_167
*1430 FILLER_0_3_169
*1431 FILLER_0_3_181
*1432 FILLER_0_3_193
*1433 FILLER_0_3_205
*1434 FILLER_0_3_217
*1435 FILLER_0_3_223
*1436 FILLER_0_3_225
*1437 FILLER_0_3_237
*1438 FILLER_0_3_249
*1439 FILLER_0_3_261
*1440 FILLER_0_3_27
*1441 FILLER_0_3_273
*1442 FILLER_0_3_279
*1443 FILLER_0_3_281
*1444 FILLER_0_3_293
*1445 FILLER_0_3_3
*1446 FILLER_0_3_39
*1447 FILLER_0_3_51
*1448 FILLER_0_3_55
*1449 FILLER_0_3_57
*1450 FILLER_0_3_69
*1451 FILLER_0_3_81
*1452 FILLER_0_3_93
*1453 FILLER_0_40_109
*1454 FILLER_0_40_121
*1455 FILLER_0_40_133
*1456 FILLER_0_40_139
*1457 FILLER_0_40_141
*1458 FILLER_0_40_15
*1459 FILLER_0_40_153
*1460 FILLER_0_40_165
*1461 FILLER_0_40_177
*1462 FILLER_0_40_189
*1463 FILLER_0_40_195
*1464 FILLER_0_40_197
*1465 FILLER_0_40_209
*1466 FILLER_0_40_221
*1467 FILLER_0_40_233
*1468 FILLER_0_40_245
*1469 FILLER_0_40_251
*1470 FILLER_0_40_253
*1471 FILLER_0_40_265
*1472 FILLER_0_40_27
*1473 FILLER_0_40_277
*1474 FILLER_0_40_289
*1475 FILLER_0_40_29
*1476 FILLER_0_40_297
*1477 FILLER_0_40_3
*1478 FILLER_0_40_41
*1479 FILLER_0_40_53
*1480 FILLER_0_40_65
*1481 FILLER_0_40_77
*1482 FILLER_0_40_83
*1483 FILLER_0_40_85
*1484 FILLER_0_40_97
*1485 FILLER_0_41_105
*1486 FILLER_0_41_111
*1487 FILLER_0_41_113
*1488 FILLER_0_41_125
*1489 FILLER_0_41_137
*1490 FILLER_0_41_149
*1491 FILLER_0_41_15
*1492 FILLER_0_41_161
*1493 FILLER_0_41_167
*1494 FILLER_0_41_169
*1495 FILLER_0_41_181
*1496 FILLER_0_41_193
*1497 FILLER_0_41_205
*1498 FILLER_0_41_217
*1499 FILLER_0_41_223
*1500 FILLER_0_41_225
*1501 FILLER_0_41_237
*1502 FILLER_0_41_249
*1503 FILLER_0_41_261
*1504 FILLER_0_41_27
*1505 FILLER_0_41_273
*1506 FILLER_0_41_279
*1507 FILLER_0_41_281
*1508 FILLER_0_41_293
*1509 FILLER_0_41_3
*1510 FILLER_0_41_39
*1511 FILLER_0_41_51
*1512 FILLER_0_41_55
*1513 FILLER_0_41_57
*1514 FILLER_0_41_69
*1515 FILLER_0_41_81
*1516 FILLER_0_41_93
*1517 FILLER_0_42_109
*1518 FILLER_0_42_121
*1519 FILLER_0_42_133
*1520 FILLER_0_42_139
*1521 FILLER_0_42_141
*1522 FILLER_0_42_15
*1523 FILLER_0_42_153
*1524 FILLER_0_42_165
*1525 FILLER_0_42_177
*1526 FILLER_0_42_189
*1527 FILLER_0_42_195
*1528 FILLER_0_42_197
*1529 FILLER_0_42_209
*1530 FILLER_0_42_221
*1531 FILLER_0_42_233
*1532 FILLER_0_42_245
*1533 FILLER_0_42_251
*1534 FILLER_0_42_253
*1535 FILLER_0_42_265
*1536 FILLER_0_42_27
*1537 FILLER_0_42_277
*1538 FILLER_0_42_289
*1539 FILLER_0_42_29
*1540 FILLER_0_42_297
*1541 FILLER_0_42_3
*1542 FILLER_0_42_41
*1543 FILLER_0_42_53
*1544 FILLER_0_42_65
*1545 FILLER_0_42_77
*1546 FILLER_0_42_83
*1547 FILLER_0_42_85
*1548 FILLER_0_42_97
*1549 FILLER_0_43_105
*1550 FILLER_0_43_111
*1551 FILLER_0_43_113
*1552 FILLER_0_43_125
*1553 FILLER_0_43_137
*1554 FILLER_0_43_149
*1555 FILLER_0_43_15
*1556 FILLER_0_43_161
*1557 FILLER_0_43_167
*1558 FILLER_0_43_169
*1559 FILLER_0_43_181
*1560 FILLER_0_43_193
*1561 FILLER_0_43_205
*1562 FILLER_0_43_217
*1563 FILLER_0_43_223
*1564 FILLER_0_43_225
*1565 FILLER_0_43_237
*1566 FILLER_0_43_249
*1567 FILLER_0_43_261
*1568 FILLER_0_43_27
*1569 FILLER_0_43_273
*1570 FILLER_0_43_279
*1571 FILLER_0_43_281
*1572 FILLER_0_43_293
*1573 FILLER_0_43_3
*1574 FILLER_0_43_39
*1575 FILLER_0_43_51
*1576 FILLER_0_43_55
*1577 FILLER_0_43_57
*1578 FILLER_0_43_69
*1579 FILLER_0_43_81
*1580 FILLER_0_43_93
*1581 FILLER_0_44_109
*1582 FILLER_0_44_121
*1583 FILLER_0_44_133
*1584 FILLER_0_44_139
*1585 FILLER_0_44_141
*1586 FILLER_0_44_15
*1587 FILLER_0_44_153
*1588 FILLER_0_44_165
*1589 FILLER_0_44_177
*1590 FILLER_0_44_189
*1591 FILLER_0_44_195
*1592 FILLER_0_44_197
*1593 FILLER_0_44_209
*1594 FILLER_0_44_221
*1595 FILLER_0_44_233
*1596 FILLER_0_44_245
*1597 FILLER_0_44_251
*1598 FILLER_0_44_253
*1599 FILLER_0_44_265
*1600 FILLER_0_44_27
*1601 FILLER_0_44_277
*1602 FILLER_0_44_289
*1603 FILLER_0_44_29
*1604 FILLER_0_44_297
*1605 FILLER_0_44_3
*1606 FILLER_0_44_41
*1607 FILLER_0_44_53
*1608 FILLER_0_44_65
*1609 FILLER_0_44_77
*1610 FILLER_0_44_83
*1611 FILLER_0_44_85
*1612 FILLER_0_44_97
*1613 FILLER_0_45_105
*1614 FILLER_0_45_111
*1615 FILLER_0_45_113
*1616 FILLER_0_45_125
*1617 FILLER_0_45_137
*1618 FILLER_0_45_149
*1619 FILLER_0_45_15
*1620 FILLER_0_45_161
*1621 FILLER_0_45_167
*1622 FILLER_0_45_169
*1623 FILLER_0_45_181
*1624 FILLER_0_45_193
*1625 FILLER_0_45_205
*1626 FILLER_0_45_217
*1627 FILLER_0_45_223
*1628 FILLER_0_45_225
*1629 FILLER_0_45_237
*1630 FILLER_0_45_249
*1631 FILLER_0_45_261
*1632 FILLER_0_45_27
*1633 FILLER_0_45_273
*1634 FILLER_0_45_279
*1635 FILLER_0_45_281
*1636 FILLER_0_45_293
*1637 FILLER_0_45_3
*1638 FILLER_0_45_39
*1639 FILLER_0_45_51
*1640 FILLER_0_45_55
*1641 FILLER_0_45_57
*1642 FILLER_0_45_69
*1643 FILLER_0_45_81
*1644 FILLER_0_45_93
*1645 FILLER_0_46_107
*1646 FILLER_0_46_111
*1647 FILLER_0_46_113
*1648 FILLER_0_46_125
*1649 FILLER_0_46_135