* NGSPICE file created from s_box_maker.ext - technology: sky130A

* Black-box entry subcircuit for sky130_fd_sc_hd__fill_1 abstract view
.subckt sky130_fd_sc_hd__fill_1 VGND VNB VPB VPWR
.ends

* Black-box entry subcircuit for sky130_ef_sc_hd__decap_12 abstract view
.subckt sky130_ef_sc_hd__decap_12 VPWR VGND VPB VNB
.ends

* Black-box entry subcircuit for sky130_fd_sc_hd__fill_2 abstract view
.subckt sky130_fd_sc_hd__fill_2 VGND VNB VPB VPWR
.ends

* Black-box entry subcircuit for sky130_fd_sc_hd__tapvpwrvgnd_1 abstract view
.subckt sky130_fd_sc_hd__tapvpwrvgnd_1 VGND VPWR
.ends

* Black-box entry subcircuit for sky130_fd_sc_hd__clkbuf_4 abstract view
.subckt sky130_fd_sc_hd__clkbuf_4 A VGND VNB VPB VPWR X
.ends

* Black-box entry subcircuit for sky130_fd_sc_hd__decap_4 abstract view
.subckt sky130_fd_sc_hd__decap_4 VGND VNB VPB VPWR
.ends

* Black-box entry subcircuit for sky130_fd_sc_hd__o21a_1 abstract view
.subckt sky130_fd_sc_hd__o21a_1 A1 A2 B1 VGND VNB VPB VPWR X
.ends

* Black-box entry subcircuit for sky130_fd_sc_hd__and3_1 abstract view
.subckt sky130_fd_sc_hd__and3_1 A B C VGND VNB VPB VPWR X
.ends

* Black-box entry subcircuit for sky130_fd_sc_hd__decap_3 abstract view
.subckt sky130_fd_sc_hd__decap_3 VGND VNB VPB VPWR
.ends

* Black-box entry subcircuit for sky130_fd_sc_hd__decap_6 abstract view
.subckt sky130_fd_sc_hd__decap_6 VGND VNB VPB VPWR
.ends

* Black-box entry subcircuit for sky130_fd_sc_hd__o211a_1 abstract view
.subckt sky130_fd_sc_hd__o211a_1 A1 A2 B1 C1 VGND VNB VPB VPWR X
.ends

* Black-box entry subcircuit for sky130_fd_sc_hd__a211o_1 abstract view
.subckt sky130_fd_sc_hd__a211o_1 A1 A2 B1 C1 VGND VNB VPB VPWR X
.ends

* Black-box entry subcircuit for sky130_fd_sc_hd__or4_4 abstract view
.subckt sky130_fd_sc_hd__or4_4 A B C D VGND VNB VPB VPWR X
.ends

* Black-box entry subcircuit for sky130_fd_sc_hd__decap_8 abstract view
.subckt sky130_fd_sc_hd__decap_8 VGND VNB VPB VPWR
.ends

* Black-box entry subcircuit for sky130_fd_sc_hd__a21oi_1 abstract view
.subckt sky130_fd_sc_hd__a21oi_1 A1 A2 B1 VGND VNB VPB VPWR Y
.ends

* Black-box entry subcircuit for sky130_fd_sc_hd__or3_1 abstract view
.subckt sky130_fd_sc_hd__or3_1 A B C VGND VNB VPB VPWR X
.ends

* Black-box entry subcircuit for sky130_fd_sc_hd__nor2_1 abstract view
.subckt sky130_fd_sc_hd__nor2_1 A B VGND VNB VPB VPWR Y
.ends

* Black-box entry subcircuit for sky130_fd_sc_hd__a31o_1 abstract view
.subckt sky130_fd_sc_hd__a31o_1 A1 A2 A3 B1 VGND VNB VPB VPWR X
.ends

* Black-box entry subcircuit for sky130_fd_sc_hd__a21o_1 abstract view
.subckt sky130_fd_sc_hd__a21o_1 A1 A2 B1 VGND VNB VPB VPWR X
.ends

* Black-box entry subcircuit for sky130_fd_sc_hd__a2bb2o_1 abstract view
.subckt sky130_fd_sc_hd__a2bb2o_1 A1_N A2_N B1 B2 VGND VNB VPB VPWR X
.ends

* Black-box entry subcircuit for sky130_fd_sc_hd__dfxtp_2 abstract view
.subckt sky130_fd_sc_hd__dfxtp_2 CLK D VGND VNB VPB VPWR Q
.ends

* Black-box entry subcircuit for sky130_fd_sc_hd__and3b_1 abstract view
.subckt sky130_fd_sc_hd__and3b_1 A_N B C VGND VNB VPB VPWR X
.ends

* Black-box entry subcircuit for sky130_fd_sc_hd__a211oi_1 abstract view
.subckt sky130_fd_sc_hd__a211oi_1 A1 A2 B1 C1 VGND VNB VPB VPWR Y
.ends

* Black-box entry subcircuit for sky130_fd_sc_hd__or3b_1 abstract view
.subckt sky130_fd_sc_hd__or3b_1 A B C_N VGND VNB VPB VPWR X
.ends

* Black-box entry subcircuit for sky130_fd_sc_hd__a32o_1 abstract view
.subckt sky130_fd_sc_hd__a32o_1 A1 A2 A3 B1 B2 VGND VNB VPB VPWR X
.ends

* Black-box entry subcircuit for sky130_fd_sc_hd__o21bai_1 abstract view
.subckt sky130_fd_sc_hd__o21bai_1 A1 A2 B1_N VGND VNB VPB VPWR Y
.ends

* Black-box entry subcircuit for sky130_fd_sc_hd__a21bo_1 abstract view
.subckt sky130_fd_sc_hd__a21bo_1 A1 A2 B1_N VGND VNB VPB VPWR X
.ends

* Black-box entry subcircuit for sky130_fd_sc_hd__a21oi_2 abstract view
.subckt sky130_fd_sc_hd__a21oi_2 A1 A2 B1 VGND VNB VPB VPWR Y
.ends

* Black-box entry subcircuit for sky130_fd_sc_hd__o221a_1 abstract view
.subckt sky130_fd_sc_hd__o221a_1 A1 A2 B1 B2 C1 VGND VNB VPB VPWR X
.ends

* Black-box entry subcircuit for sky130_fd_sc_hd__buf_2 abstract view
.subckt sky130_fd_sc_hd__buf_2 A VGND VNB VPB VPWR X
.ends

* Black-box entry subcircuit for sky130_fd_sc_hd__o31a_1 abstract view
.subckt sky130_fd_sc_hd__o31a_1 A1 A2 A3 B1 VGND VNB VPB VPWR X
.ends

* Black-box entry subcircuit for sky130_fd_sc_hd__buf_4 abstract view
.subckt sky130_fd_sc_hd__buf_4 A VGND VNB VPB VPWR X
.ends

* Black-box entry subcircuit for sky130_fd_sc_hd__a221o_1 abstract view
.subckt sky130_fd_sc_hd__a221o_1 A1 A2 B1 B2 C1 VGND VNB VPB VPWR X
.ends

* Black-box entry subcircuit for sky130_fd_sc_hd__xor2_1 abstract view
.subckt sky130_fd_sc_hd__xor2_1 A B VGND VNB VPB VPWR X
.ends

* Black-box entry subcircuit for sky130_fd_sc_hd__o311a_1 abstract view
.subckt sky130_fd_sc_hd__o311a_1 A1 A2 A3 B1 C1 VGND VNB VPB VPWR X
.ends

* Black-box entry subcircuit for sky130_fd_sc_hd__or4_1 abstract view
.subckt sky130_fd_sc_hd__or4_1 A B C D VGND VNB VPB VPWR X
.ends

* Black-box entry subcircuit for sky130_fd_sc_hd__inv_2 abstract view
.subckt sky130_fd_sc_hd__inv_2 A VGND VNB VPB VPWR Y
.ends

* Black-box entry subcircuit for sky130_fd_sc_hd__dfxtp_4 abstract view
.subckt sky130_fd_sc_hd__dfxtp_4 CLK D VGND VNB VPB VPWR Q
.ends

* Black-box entry subcircuit for sky130_fd_sc_hd__o2bb2a_1 abstract view
.subckt sky130_fd_sc_hd__o2bb2a_1 A1_N A2_N B1 B2 VGND VNB VPB VPWR X
.ends

* Black-box entry subcircuit for sky130_fd_sc_hd__or3_2 abstract view
.subckt sky130_fd_sc_hd__or3_2 A B C VGND VNB VPB VPWR X
.ends

* Black-box entry subcircuit for sky130_fd_sc_hd__nand2_2 abstract view
.subckt sky130_fd_sc_hd__nand2_2 A B VGND VNB VPB VPWR Y
.ends

* Black-box entry subcircuit for sky130_fd_sc_hd__nand2_1 abstract view
.subckt sky130_fd_sc_hd__nand2_1 A B VGND VNB VPB VPWR Y
.ends

* Black-box entry subcircuit for sky130_fd_sc_hd__dfxtp_1 abstract view
.subckt sky130_fd_sc_hd__dfxtp_1 CLK D VGND VNB VPB VPWR Q
.ends

* Black-box entry subcircuit for sky130_fd_sc_hd__o211ai_1 abstract view
.subckt sky130_fd_sc_hd__o211ai_1 A1 A2 B1 C1 VGND VNB VPB VPWR Y
.ends

* Black-box entry subcircuit for sky130_fd_sc_hd__or3_4 abstract view
.subckt sky130_fd_sc_hd__or3_4 A B C VGND VNB VPB VPWR X
.ends

* Black-box entry subcircuit for sky130_fd_sc_hd__o22a_1 abstract view
.subckt sky130_fd_sc_hd__o22a_1 A1 A2 B1 B2 VGND VNB VPB VPWR X
.ends

* Black-box entry subcircuit for sky130_fd_sc_hd__xnor2_2 abstract view
.subckt sky130_fd_sc_hd__xnor2_2 A B VGND VNB VPB VPWR Y
.ends

* Black-box entry subcircuit for sky130_fd_sc_hd__or2_1 abstract view
.subckt sky130_fd_sc_hd__or2_1 A B VGND VNB VPB VPWR X
.ends

* Black-box entry subcircuit for sky130_fd_sc_hd__nand2_4 abstract view
.subckt sky130_fd_sc_hd__nand2_4 A B VGND VNB VPB VPWR Y
.ends

* Black-box entry subcircuit for sky130_fd_sc_hd__a311o_1 abstract view
.subckt sky130_fd_sc_hd__a311o_1 A1 A2 A3 B1 C1 VGND VNB VPB VPWR X
.ends

* Black-box entry subcircuit for sky130_fd_sc_hd__o311ai_4 abstract view
.subckt sky130_fd_sc_hd__o311ai_4 A1 A2 A3 B1 C1 VGND VNB VPB VPWR Y
.ends

* Black-box entry subcircuit for sky130_fd_sc_hd__o32a_2 abstract view
.subckt sky130_fd_sc_hd__o32a_2 A1 A2 A3 B1 B2 VGND VNB VPB VPWR X
.ends

* Black-box entry subcircuit for sky130_fd_sc_hd__and2_2 abstract view
.subckt sky130_fd_sc_hd__and2_2 A B VGND VNB VPB VPWR X
.ends

* Black-box entry subcircuit for sky130_fd_sc_hd__a22o_1 abstract view
.subckt sky130_fd_sc_hd__a22o_1 A1 A2 B1 B2 VGND VNB VPB VPWR X
.ends

* Black-box entry subcircuit for sky130_fd_sc_hd__o211a_4 abstract view
.subckt sky130_fd_sc_hd__o211a_4 A1 A2 B1 C1 VGND VNB VPB VPWR X
.ends

* Black-box entry subcircuit for sky130_fd_sc_hd__nor2_2 abstract view
.subckt sky130_fd_sc_hd__nor2_2 A B VGND VNB VPB VPWR Y
.ends

* Black-box entry subcircuit for sky130_fd_sc_hd__a21o_4 abstract view
.subckt sky130_fd_sc_hd__a21o_4 A1 A2 B1 VGND VNB VPB VPWR X
.ends

* Black-box entry subcircuit for sky130_fd_sc_hd__o2111a_1 abstract view
.subckt sky130_fd_sc_hd__o2111a_1 A1 A2 B1 C1 D1 VGND VNB VPB VPWR X
.ends

* Black-box entry subcircuit for sky130_fd_sc_hd__nand3_2 abstract view
.subckt sky130_fd_sc_hd__nand3_2 A B C VGND VNB VPB VPWR Y
.ends

* Black-box entry subcircuit for sky130_fd_sc_hd__nand3_1 abstract view
.subckt sky130_fd_sc_hd__nand3_1 A B C VGND VNB VPB VPWR Y
.ends

* Black-box entry subcircuit for sky130_fd_sc_hd__o32a_1 abstract view
.subckt sky130_fd_sc_hd__o32a_1 A1 A2 A3 B1 B2 VGND VNB VPB VPWR X
.ends

* Black-box entry subcircuit for sky130_fd_sc_hd__o21ai_4 abstract view
.subckt sky130_fd_sc_hd__o21ai_4 A1 A2 B1 VGND VNB VPB VPWR Y
.ends

* Black-box entry subcircuit for sky130_fd_sc_hd__nor2_4 abstract view
.subckt sky130_fd_sc_hd__nor2_4 A B VGND VNB VPB VPWR Y
.ends

* Black-box entry subcircuit for sky130_fd_sc_hd__o21ai_1 abstract view
.subckt sky130_fd_sc_hd__o21ai_1 A1 A2 B1 VGND VNB VPB VPWR Y
.ends

* Black-box entry subcircuit for sky130_fd_sc_hd__o22a_4 abstract view
.subckt sky130_fd_sc_hd__o22a_4 A1 A2 B1 B2 VGND VNB VPB VPWR X
.ends

* Black-box entry subcircuit for sky130_fd_sc_hd__clkbuf_1 abstract view
.subckt sky130_fd_sc_hd__clkbuf_1 A VGND VNB VPB VPWR X
.ends

* Black-box entry subcircuit for sky130_fd_sc_hd__a41o_1 abstract view
.subckt sky130_fd_sc_hd__a41o_1 A1 A2 A3 A4 B1 VGND VNB VPB VPWR X
.ends

* Black-box entry subcircuit for sky130_fd_sc_hd__and4b_2 abstract view
.subckt sky130_fd_sc_hd__and4b_2 A_N B C D VGND VNB VPB VPWR X
.ends

* Black-box entry subcircuit for sky130_fd_sc_hd__and2_1 abstract view
.subckt sky130_fd_sc_hd__and2_1 A B VGND VNB VPB VPWR X
.ends

* Black-box entry subcircuit for sky130_fd_sc_hd__and4_2 abstract view
.subckt sky130_fd_sc_hd__and4_2 A B C D VGND VNB VPB VPWR X
.ends

* Black-box entry subcircuit for sky130_fd_sc_hd__o2111a_4 abstract view
.subckt sky130_fd_sc_hd__o2111a_4 A1 A2 B1 C1 D1 VGND VNB VPB VPWR X
.ends

* Black-box entry subcircuit for sky130_fd_sc_hd__o22ai_1 abstract view
.subckt sky130_fd_sc_hd__o22ai_1 A1 A2 B1 B2 VGND VNB VPB VPWR Y
.ends

* Black-box entry subcircuit for sky130_fd_sc_hd__a31oi_4 abstract view
.subckt sky130_fd_sc_hd__a31oi_4 A1 A2 A3 B1 VGND VNB VPB VPWR Y
.ends

* Black-box entry subcircuit for sky130_fd_sc_hd__o2111a_2 abstract view
.subckt sky130_fd_sc_hd__o2111a_2 A1 A2 B1 C1 D1 VGND VNB VPB VPWR X
.ends

* Black-box entry subcircuit for sky130_fd_sc_hd__o211ai_4 abstract view
.subckt sky130_fd_sc_hd__o211ai_4 A1 A2 B1 C1 VGND VNB VPB VPWR Y
.ends

* Black-box entry subcircuit for sky130_fd_sc_hd__a211o_2 abstract view
.subckt sky130_fd_sc_hd__a211o_2 A1 A2 B1 C1 VGND VNB VPB VPWR X
.ends

* Black-box entry subcircuit for sky130_fd_sc_hd__and4b_1 abstract view
.subckt sky130_fd_sc_hd__and4b_1 A_N B C D VGND VNB VPB VPWR X
.ends

* Black-box entry subcircuit for sky130_fd_sc_hd__and4_1 abstract view
.subckt sky130_fd_sc_hd__and4_1 A B C D VGND VNB VPB VPWR X
.ends

* Black-box entry subcircuit for sky130_fd_sc_hd__xnor2_1 abstract view
.subckt sky130_fd_sc_hd__xnor2_1 A B VGND VNB VPB VPWR Y
.ends

* Black-box entry subcircuit for sky130_fd_sc_hd__mux2_1 abstract view
.subckt sky130_fd_sc_hd__mux2_1 A0 A1 S VGND VNB VPB VPWR X
.ends

* Black-box entry subcircuit for sky130_fd_sc_hd__o211a_2 abstract view
.subckt sky130_fd_sc_hd__o211a_2 A1 A2 B1 C1 VGND VNB VPB VPWR X
.ends

* Black-box entry subcircuit for sky130_fd_sc_hd__and3_2 abstract view
.subckt sky130_fd_sc_hd__and3_2 A B C VGND VNB VPB VPWR X
.ends

* Black-box entry subcircuit for sky130_fd_sc_hd__o41a_1 abstract view
.subckt sky130_fd_sc_hd__o41a_1 A1 A2 A3 A4 B1 VGND VNB VPB VPWR X
.ends

* Black-box entry subcircuit for sky130_fd_sc_hd__or4b_1 abstract view
.subckt sky130_fd_sc_hd__or4b_1 A B C D_N VGND VNB VPB VPWR X
.ends

* Black-box entry subcircuit for sky130_fd_sc_hd__xnor2_4 abstract view
.subckt sky130_fd_sc_hd__xnor2_4 A B VGND VNB VPB VPWR Y
.ends

* Black-box entry subcircuit for sky130_fd_sc_hd__o311a_2 abstract view
.subckt sky130_fd_sc_hd__o311a_2 A1 A2 A3 B1 C1 VGND VNB VPB VPWR X
.ends

* Black-box entry subcircuit for sky130_fd_sc_hd__a21o_2 abstract view
.subckt sky130_fd_sc_hd__a21o_2 A1 A2 B1 VGND VNB VPB VPWR X
.ends

* Black-box entry subcircuit for sky130_fd_sc_hd__nand4_4 abstract view
.subckt sky130_fd_sc_hd__nand4_4 A B C D VGND VNB VPB VPWR Y
.ends

* Black-box entry subcircuit for sky130_fd_sc_hd__a21boi_1 abstract view
.subckt sky130_fd_sc_hd__a21boi_1 A1 A2 B1_N VGND VNB VPB VPWR Y
.ends

* Black-box entry subcircuit for sky130_fd_sc_hd__nor4_1 abstract view
.subckt sky130_fd_sc_hd__nor4_1 A B C D VGND VNB VPB VPWR Y
.ends

* Black-box entry subcircuit for sky130_fd_sc_hd__or4_2 abstract view
.subckt sky130_fd_sc_hd__or4_2 A B C D VGND VNB VPB VPWR X
.ends

* Black-box entry subcircuit for sky130_fd_sc_hd__a221oi_1 abstract view
.subckt sky130_fd_sc_hd__a221oi_1 A1 A2 B1 B2 C1 VGND VNB VPB VPWR Y
.ends

* Black-box entry subcircuit for sky130_fd_sc_hd__a22o_2 abstract view
.subckt sky130_fd_sc_hd__a22o_2 A1 A2 B1 B2 VGND VNB VPB VPWR X
.ends

* Black-box entry subcircuit for sky130_fd_sc_hd__a2111o_2 abstract view
.subckt sky130_fd_sc_hd__a2111o_2 A1 A2 B1 C1 D1 VGND VNB VPB VPWR X
.ends

* Black-box entry subcircuit for sky130_fd_sc_hd__o21ba_1 abstract view
.subckt sky130_fd_sc_hd__o21ba_1 A1 A2 B1_N VGND VNB VPB VPWR X
.ends

* Black-box entry subcircuit for sky130_fd_sc_hd__o31a_2 abstract view
.subckt sky130_fd_sc_hd__o31a_2 A1 A2 A3 B1 VGND VNB VPB VPWR X
.ends

.subckt s_box_maker VGND VPWR clk ram_ready reset wr_addr[0] wr_addr[1] wr_addr[2]
+ wr_addr[3] wr_addr[4] wr_addr[5] wr_addr[6] wr_addr[7] wr_data[0] wr_data[1] wr_data[2]
+ wr_data[3] wr_data[4] wr_data[5] wr_data[6] wr_data[7] wr_enable
XFILLER_0_27_82 VGND VGND VPWR VPWR sky130_fd_sc_hd__fill_1
XFILLER_0_43_81 VPWR VGND VPWR VGND sky130_ef_sc_hd__decap_12
XFILLER_0_17_222 VGND VGND VPWR VPWR sky130_fd_sc_hd__fill_2
XFILLER_0_7_81 VPWR VGND VPWR VGND sky130_ef_sc_hd__decap_12
XTAP_TAPCELL_ROW_9_148 VGND VPWR sky130_fd_sc_hd__tapvpwrvgnd_1
X_501_ _430_ VGND VGND VPWR VPWR _431_ sky130_fd_sc_hd__clkbuf_4
XFILLER_0_3_39 VPWR VGND VPWR VGND sky130_ef_sc_hd__decap_12
XFILLER_0_13_51 VGND VGND VPWR VPWR sky130_fd_sc_hd__decap_4
XTAP_TAPCELL_ROW_14_172 VGND VPWR sky130_fd_sc_hd__tapvpwrvgnd_1
XFILLER_0_13_95 VGND VGND VPWR VPWR sky130_fd_sc_hd__fill_1
XFILLER_0_14_247 VGND VGND VPWR VPWR sky130_fd_sc_hd__decap_4
XTAP_TAPCELL_ROW_6_129 VGND VPWR sky130_fd_sc_hd__tapvpwrvgnd_1
XTAP_TAPCELL_ROW_37_286 VGND VPWR sky130_fd_sc_hd__tapvpwrvgnd_1
XFILLER_0_20_228 VGND VGND VPWR VPWR sky130_fd_sc_hd__fill_1
XFILLER_0_20_239 VPWR VGND VPWR VGND sky130_ef_sc_hd__decap_12
XFILLER_0_18_29 VPWR VGND VPWR VGND sky130_ef_sc_hd__decap_12
XTAP_TAPCELL_ROW_28_242 VGND VPWR sky130_fd_sc_hd__tapvpwrvgnd_1
XFILLER_0_46_125 VGND VGND VPWR VPWR sky130_fd_sc_hd__decap_4
XFILLER_0_6_277 VPWR VGND VPWR VGND sky130_ef_sc_hd__decap_12
XFILLER_0_6_233 VPWR VGND VPWR VGND sky130_ef_sc_hd__decap_12
XTAP_TAPCELL_ROW_2_110 VGND VPWR sky130_fd_sc_hd__tapvpwrvgnd_1
XFILLER_0_37_169 VPWR VGND VPWR VGND sky130_ef_sc_hd__decap_12
X_895_ _155_ _340_ _162_ VGND VGND VPWR VPWR _391_ sky130_fd_sc_hd__o21a_1
XFILLER_0_29_39 VPWR VGND VPWR VGND sky130_ef_sc_hd__decap_12
XFILLER_0_45_27 VPWR VGND VPWR VGND sky130_ef_sc_hd__decap_12
XFILLER_0_0_29 VPWR VGND VPWR VGND sky130_ef_sc_hd__decap_12
XFILLER_0_9_27 VPWR VGND VPWR VGND sky130_ef_sc_hd__decap_12
XFILLER_0_3_225 VPWR VGND VPWR VGND sky130_ef_sc_hd__decap_12
XFILLER_0_10_41 VPWR VGND VPWR VGND sky130_ef_sc_hd__decap_12
XFILLER_0_10_85 VGND VGND VPWR VPWR sky130_fd_sc_hd__fill_1
XFILLER_0_19_61 VGND VGND VPWR VPWR sky130_fd_sc_hd__fill_1
XFILLER_0_34_128 VGND VGND VPWR VPWR sky130_fd_sc_hd__decap_4
X_680_ _166_ VGND VGND VPWR VPWR _167_ sky130_fd_sc_hd__clkbuf_4
XFILLER_0_25_106 VGND VGND VPWR VPWR sky130_fd_sc_hd__fill_2
XFILLER_0_25_139 VGND VGND VPWR VPWR sky130_fd_sc_hd__fill_2
XFILLER_0_40_109 VPWR VGND VPWR VGND sky130_ef_sc_hd__decap_12
X_878_ _412_ _030_ _058_ VGND VGND VPWR VPWR _373_ sky130_fd_sc_hd__and3_1
XFILLER_0_16_139 VGND VGND VPWR VPWR sky130_fd_sc_hd__fill_1
XFILLER_0_21_51 VGND VGND VPWR VPWR sky130_fd_sc_hd__decap_4
XFILLER_0_21_73 VPWR VGND VPWR VGND sky130_ef_sc_hd__decap_12
XFILLER_0_46_81 VGND VGND VPWR VPWR sky130_fd_sc_hd__decap_3
XFILLER_0_34_3 VPWR VGND VPWR VGND sky130_ef_sc_hd__decap_12
XFILLER_0_22_109 VGND VGND VPWR VPWR sky130_fd_sc_hd__decap_6
XFILLER_0_30_131 VGND VGND VPWR VPWR sky130_fd_sc_hd__fill_2
XFILLER_0_30_153 VGND VGND VPWR VPWR sky130_fd_sc_hd__decap_3
X_732_ _350_ _206_ _216_ _017_ VGND VGND VPWR VPWR _217_ sky130_fd_sc_hd__o211a_1
X_801_ _454_ _100_ _164_ _080_ VGND VGND VPWR VPWR _291_ sky130_fd_sc_hd__a211o_1
XFILLER_0_26_29 VPWR VGND VPWR VGND sky130_ef_sc_hd__decap_12
X_594_ _436_ _413_ _426_ _429_ VGND VGND VPWR VPWR _083_ sky130_fd_sc_hd__or4_4
X_663_ _438_ _012_ _409_ _029_ VGND VGND VPWR VPWR _150_ sky130_fd_sc_hd__o211a_1
XFILLER_0_38_297 VGND VGND VPWR VPWR sky130_fd_sc_hd__fill_2
XFILLER_0_38_253 VPWR VGND VPWR VGND sky130_ef_sc_hd__decap_12
XFILLER_0_21_120 VGND VGND VPWR VPWR sky130_fd_sc_hd__decap_8
XFILLER_0_32_61 VGND VGND VPWR VPWR sky130_fd_sc_hd__fill_1
XFILLER_0_44_289 VGND VGND VPWR VPWR sky130_fd_sc_hd__decap_8
XFILLER_0_44_245 VGND VGND VPWR VPWR sky130_fd_sc_hd__decap_6
XFILLER_0_12_164 VGND VGND VPWR VPWR sky130_fd_sc_hd__decap_4
XFILLER_0_12_197 VGND VGND VPWR VPWR sky130_fd_sc_hd__decap_3
Xoutput7 net7 VGND VGND VPWR VPWR wr_addr[3] sky130_fd_sc_hd__clkbuf_4
Xoutput20 net22 VGND VGND VPWR VPWR wr_enable sky130_fd_sc_hd__clkbuf_4
X_715_ _350_ _196_ _198_ VGND VGND VPWR VPWR _199_ sky130_fd_sc_hd__a21oi_1
X_646_ _382_ _130_ _132_ VGND VGND VPWR VPWR _133_ sky130_fd_sc_hd__or3_1
X_577_ _035_ _051_ VGND VGND VPWR VPWR _066_ sky130_fd_sc_hd__nor2_1
XFILLER_0_41_237 VPWR VGND VPWR VGND sky130_ef_sc_hd__decap_12
XFILLER_0_26_289 VGND VGND VPWR VPWR sky130_fd_sc_hd__decap_8
XFILLER_0_43_93 VPWR VGND VPWR VGND sky130_ef_sc_hd__decap_12
XFILLER_0_7_93 VPWR VGND VPWR VGND sky130_ef_sc_hd__decap_12
X_500_ _413_ _426_ _429_ VGND VGND VPWR VPWR _430_ sky130_fd_sc_hd__or3_1
XFILLER_0_2_109 VPWR VGND VPWR VGND sky130_ef_sc_hd__decap_12
XFILLER_0_31_281 VPWR VGND VPWR VGND sky130_ef_sc_hd__decap_12
X_629_ _297_ _049_ _079_ _117_ VGND VGND VPWR VPWR _000_ sky130_fd_sc_hd__a31o_1
XTAP_TAPCELL_ROW_14_173 VGND VPWR sky130_fd_sc_hd__tapvpwrvgnd_1
XTAP_TAPCELL_ROW_37_287 VGND VPWR sky130_fd_sc_hd__tapvpwrvgnd_1
XFILLER_0_13_281 VPWR VGND VPWR VGND sky130_ef_sc_hd__decap_12
XFILLER_0_34_29 VPWR VGND VPWR VGND sky130_ef_sc_hd__decap_12
XTAP_TAPCELL_ROW_28_243 VGND VPWR sky130_fd_sc_hd__tapvpwrvgnd_1
XTAP_TAPCELL_ROW_11_154 VGND VPWR sky130_fd_sc_hd__tapvpwrvgnd_1
XFILLER_0_40_83 VGND VGND VPWR VPWR sky130_fd_sc_hd__fill_1
XFILLER_0_6_289 VGND VGND VPWR VPWR sky130_fd_sc_hd__decap_8
XFILLER_0_6_245 VGND VGND VPWR VPWR sky130_fd_sc_hd__decap_6
XFILLER_0_10_251 VGND VGND VPWR VPWR sky130_fd_sc_hd__fill_1
XPHY_EDGE_ROW_12_Right_12 VGND VGND VPWR VPWR sky130_fd_sc_hd__decap_3
XFILLER_0_4_83 VGND VGND VPWR VPWR sky130_fd_sc_hd__fill_1
XTAP_TAPCELL_ROW_2_111 VGND VPWR sky130_fd_sc_hd__tapvpwrvgnd_1
XPHY_EDGE_ROW_21_Right_21 VGND VGND VPWR VPWR sky130_fd_sc_hd__decap_3
XTAP_TAPCELL_ROW_25_224 VGND VPWR sky130_fd_sc_hd__tapvpwrvgnd_1
XFILLER_0_45_181 VPWR VGND VPWR VGND sky130_ef_sc_hd__decap_12
XPHY_EDGE_ROW_30_Right_30 VGND VGND VPWR VPWR sky130_fd_sc_hd__decap_3
X_894_ _389_ _252_ _102_ VGND VGND VPWR VPWR _390_ sky130_fd_sc_hd__a21oi_1
XFILLER_0_45_39 VPWR VGND VPWR VGND sky130_ef_sc_hd__decap_12
XFILLER_0_9_39 VPWR VGND VPWR VGND sky130_ef_sc_hd__decap_12
XFILLER_0_3_237 VPWR VGND VPWR VGND sky130_ef_sc_hd__decap_12
XFILLER_0_10_53 VPWR VGND VPWR VGND sky130_ef_sc_hd__decap_12
XFILLER_0_19_84 VGND VGND VPWR VPWR sky130_fd_sc_hd__fill_2
XFILLER_0_19_148 VGND VGND VPWR VPWR sky130_fd_sc_hd__fill_1
XFILLER_0_42_195 VGND VGND VPWR VPWR sky130_fd_sc_hd__fill_1
XFILLER_0_33_184 VGND VGND VPWR VPWR sky130_fd_sc_hd__fill_1
XFILLER_0_33_140 VGND VGND VPWR VPWR sky130_fd_sc_hd__decap_8
X_877_ _203_ _094_ _081_ VGND VGND VPWR VPWR _372_ sky130_fd_sc_hd__a21o_1
XPHY_EDGE_ROW_28_Left_75 VGND VGND VPWR VPWR sky130_fd_sc_hd__decap_3
XPHY_EDGE_ROW_12_Left_59 VGND VGND VPWR VPWR sky130_fd_sc_hd__decap_3
XFILLER_0_16_129 VGND VGND VPWR VPWR sky130_fd_sc_hd__decap_4
XFILLER_0_21_85 VGND VGND VPWR VPWR sky130_fd_sc_hd__decap_8
XFILLER_0_24_162 VGND VGND VPWR VPWR sky130_fd_sc_hd__decap_3
XFILLER_0_24_195 VGND VGND VPWR VPWR sky130_fd_sc_hd__fill_1
XFILLER_0_1_51 VGND VGND VPWR VPWR sky130_fd_sc_hd__decap_4
X_662_ _125_ _134_ _077_ _148_ VGND VGND VPWR VPWR _149_ sky130_fd_sc_hd__a2bb2o_1
X_731_ _209_ _215_ _329_ VGND VGND VPWR VPWR _216_ sky130_fd_sc_hd__a21o_1
X_800_ _018_ _289_ _095_ VGND VGND VPWR VPWR _290_ sky130_fd_sc_hd__a21o_1
XFILLER_0_42_29 VPWR VGND VPWR VGND sky130_ef_sc_hd__decap_12
XFILLER_0_38_265 VPWR VGND VPWR VGND sky130_ef_sc_hd__decap_12
XFILLER_0_38_221 VPWR VGND VPWR VGND sky130_ef_sc_hd__decap_12
X_593_ _436_ _451_ VGND VGND VPWR VPWR _082_ sky130_fd_sc_hd__nor2_1
XFILLER_0_21_110 VGND VGND VPWR VPWR sky130_fd_sc_hd__fill_2
XFILLER_0_6_29 VPWR VGND VPWR VGND sky130_ef_sc_hd__decap_12
X_929_ net23 _017_ VGND VGND VPWR VPWR net5 sky130_fd_sc_hd__dfxtp_2
XFILLER_0_16_41 VPWR VGND VPWR VGND sky130_ef_sc_hd__decap_12
XFILLER_0_8_148 VGND VGND VPWR VPWR sky130_fd_sc_hd__decap_3
XFILLER_0_29_221 VGND VGND VPWR VPWR sky130_fd_sc_hd__decap_3
XPHY_EDGE_ROW_6_Right_6 VGND VGND VPWR VPWR sky130_fd_sc_hd__decap_3
XFILLER_0_12_132 VGND VGND VPWR VPWR sky130_fd_sc_hd__decap_8
XFILLER_0_35_279 VGND VGND VPWR VPWR sky130_fd_sc_hd__fill_1
XFILLER_0_7_192 VGND VGND VPWR VPWR sky130_fd_sc_hd__fill_1
XFILLER_0_37_18 VPWR VGND VPWR VGND sky130_ef_sc_hd__decap_12
Xoutput8 net8 VGND VGND VPWR VPWR wr_addr[4] sky130_fd_sc_hd__clkbuf_4
Xoutput10 net10 VGND VGND VPWR VPWR wr_addr[6] sky130_fd_sc_hd__clkbuf_4
X_714_ _042_ _131_ _197_ _062_ VGND VGND VPWR VPWR _198_ sky130_fd_sc_hd__a31o_1
X_645_ _085_ _131_ _439_ VGND VGND VPWR VPWR _132_ sky130_fd_sc_hd__and3b_1
X_576_ _418_ _063_ _064_ VGND VGND VPWR VPWR _065_ sky130_fd_sc_hd__and3_1
XFILLER_0_26_224 VGND VGND VPWR VPWR sky130_fd_sc_hd__decap_4
XFILLER_0_41_249 VPWR VGND VPWR VGND sky130_ef_sc_hd__decap_12
XFILLER_0_41_205 VPWR VGND VPWR VGND sky130_ef_sc_hd__decap_12
XFILLER_0_4_195 VGND VGND VPWR VPWR sky130_fd_sc_hd__fill_1
XPHY_EDGE_ROW_15_Left_62 VGND VGND VPWR VPWR sky130_fd_sc_hd__decap_3
XFILLER_0_31_293 VGND VGND VPWR VPWR sky130_fd_sc_hd__decap_6
X_628_ _078_ _099_ _116_ _297_ VGND VGND VPWR VPWR _117_ sky130_fd_sc_hd__a211oi_1
X_559_ _048_ VGND VGND VPWR VPWR _017_ sky130_fd_sc_hd__clkbuf_4
XFILLER_0_38_83 VGND VGND VPWR VPWR sky130_fd_sc_hd__fill_1
XTAP_TAPCELL_ROW_37_288 VGND VPWR sky130_fd_sc_hd__tapvpwrvgnd_1
XTAP_TAPCELL_ROW_20_199 VGND VPWR sky130_fd_sc_hd__tapvpwrvgnd_1
XPHY_EDGE_ROW_0_Left_47 VGND VGND VPWR VPWR sky130_fd_sc_hd__decap_3
XFILLER_0_13_293 VGND VGND VPWR VPWR sky130_fd_sc_hd__decap_6
XTAP_TAPCELL_ROW_11_155 VGND VPWR sky130_fd_sc_hd__tapvpwrvgnd_1
XTAP_TAPCELL_ROW_34_269 VGND VPWR sky130_fd_sc_hd__tapvpwrvgnd_1
XFILLER_0_24_41 VPWR VGND VPWR VGND sky130_ef_sc_hd__decap_12
XFILLER_0_24_85 VGND VGND VPWR VPWR sky130_fd_sc_hd__decap_8
XPHY_EDGE_ROW_42_Left_89 VGND VGND VPWR VPWR sky130_fd_sc_hd__decap_3
XTAP_TAPCELL_ROW_2_112 VGND VPWR sky130_fd_sc_hd__tapvpwrvgnd_1
XFILLER_0_37_105 VGND VGND VPWR VPWR sky130_fd_sc_hd__decap_6
XTAP_TAPCELL_ROW_25_225 VGND VPWR sky130_fd_sc_hd__tapvpwrvgnd_1
XFILLER_0_45_193 VPWR VGND VPWR VGND sky130_ef_sc_hd__decap_12
X_893_ _118_ _411_ _018_ VGND VGND VPWR VPWR _389_ sky130_fd_sc_hd__or3b_1
XFILLER_0_28_138 VGND VGND VPWR VPWR sky130_fd_sc_hd__fill_2
XFILLER_0_3_249 VPWR VGND VPWR VGND sky130_ef_sc_hd__decap_12
XFILLER_0_3_205 VPWR VGND VPWR VGND sky130_ef_sc_hd__decap_12
XFILLER_0_10_65 VPWR VGND VPWR VGND sky130_ef_sc_hd__decap_12
XFILLER_0_35_73 VGND VGND VPWR VPWR sky130_fd_sc_hd__decap_6
XFILLER_0_35_95 VGND VGND VPWR VPWR sky130_fd_sc_hd__decap_4
XFILLER_0_34_119 VGND VGND VPWR VPWR sky130_fd_sc_hd__decap_6
XFILLER_0_19_116 VGND VGND VPWR VPWR sky130_fd_sc_hd__decap_8
XFILLER_0_42_141 VPWR VGND VPWR VGND sky130_ef_sc_hd__decap_12
XTAP_TAPCELL_ROW_30_250 VGND VPWR sky130_fd_sc_hd__tapvpwrvgnd_1
XFILLER_0_18_193 VGND VGND VPWR VPWR sky130_fd_sc_hd__decap_3
X_876_ _297_ _346_ _354_ _360_ _370_ VGND VGND VPWR VPWR _006_ sky130_fd_sc_hd__a32o_1
XPHY_EDGE_ROW_3_Left_50 VGND VGND VPWR VPWR sky130_fd_sc_hd__decap_3
XTAP_TAPCELL_ROW_44_320 VGND VPWR sky130_fd_sc_hd__tapvpwrvgnd_1
XFILLER_0_24_141 VPWR VGND VPWR VGND sky130_ef_sc_hd__decap_12
XPHY_EDGE_ROW_45_Left_92 VGND VGND VPWR VPWR sky130_fd_sc_hd__decap_3
X_661_ _097_ _141_ _147_ VGND VGND VPWR VPWR _148_ sky130_fd_sc_hd__o21bai_1
X_730_ _210_ _212_ _214_ VGND VGND VPWR VPWR _215_ sky130_fd_sc_hd__a21o_1
X_592_ _080_ VGND VGND VPWR VPWR _081_ sky130_fd_sc_hd__clkbuf_4
XFILLER_0_38_277 VPWR VGND VPWR VGND sky130_ef_sc_hd__decap_12
XFILLER_0_38_233 VPWR VGND VPWR VGND sky130_ef_sc_hd__decap_12
X_928_ net23 _016_ VGND VGND VPWR VPWR net6 sky130_fd_sc_hd__dfxtp_2
X_859_ _015_ _351_ _352_ _048_ VGND VGND VPWR VPWR _353_ sky130_fd_sc_hd__a31o_1
XFILLER_0_16_53 VPWR VGND VPWR VGND sky130_ef_sc_hd__decap_12
XFILLER_0_32_85 VGND VGND VPWR VPWR sky130_fd_sc_hd__decap_8
XFILLER_0_32_41 VPWR VGND VPWR VGND sky130_ef_sc_hd__decap_12
XFILLER_0_29_233 VPWR VGND VPWR VGND sky130_ef_sc_hd__decap_12
XFILLER_0_29_277 VGND VGND VPWR VPWR sky130_fd_sc_hd__decap_3
XFILLER_0_35_225 VPWR VGND VPWR VGND sky130_ef_sc_hd__decap_12
XFILLER_0_9_3 VPWR VGND VPWR VGND sky130_ef_sc_hd__decap_12
Xoutput9 net21 VGND VGND VPWR VPWR wr_addr[5] sky130_fd_sc_hd__clkbuf_4
Xoutput11 net11 VGND VGND VPWR VPWR wr_addr[7] sky130_fd_sc_hd__clkbuf_4
X_713_ _063_ _030_ _114_ VGND VGND VPWR VPWR _197_ sky130_fd_sc_hd__a21bo_1
X_644_ _414_ _418_ _428_ _431_ VGND VGND VPWR VPWR _131_ sky130_fd_sc_hd__or4_4
X_575_ _275_ _438_ _012_ VGND VGND VPWR VPWR _064_ sky130_fd_sc_hd__a21oi_2
XFILLER_0_41_217 VGND VGND VPWR VPWR sky130_fd_sc_hd__decap_6
XFILLER_0_43_51 VGND VGND VPWR VPWR sky130_fd_sc_hd__decap_4
XFILLER_0_4_141 VPWR VGND VPWR VGND sky130_ef_sc_hd__decap_12
XFILLER_0_7_51 VGND VGND VPWR VPWR sky130_fd_sc_hd__decap_4
XFILLER_0_31_261 VPWR VGND VPWR VGND sky130_ef_sc_hd__decap_12
XTAP_TAPCELL_ROW_8_140 VGND VPWR sky130_fd_sc_hd__tapvpwrvgnd_1
X_627_ _103_ _108_ _115_ _043_ _048_ VGND VGND VPWR VPWR _116_ sky130_fd_sc_hd__o221a_1
X_558_ _047_ VGND VGND VPWR VPWR _048_ sky130_fd_sc_hd__clkbuf_4
X_489_ _419_ VGND VGND VPWR VPWR _420_ sky130_fd_sc_hd__buf_2
XFILLER_0_1_111 VGND VGND VPWR VPWR sky130_fd_sc_hd__fill_1
XTAP_TAPCELL_ROW_11_156 VGND VPWR sky130_fd_sc_hd__tapvpwrvgnd_1
XFILLER_0_46_139 VGND VGND VPWR VPWR sky130_fd_sc_hd__fill_1
XFILLER_0_24_53 VPWR VGND VPWR VGND sky130_ef_sc_hd__decap_12
XFILLER_0_40_85 VPWR VGND VPWR VGND sky130_ef_sc_hd__decap_12
XFILLER_0_40_41 VPWR VGND VPWR VGND sky130_ef_sc_hd__decap_12
XFILLER_0_4_85 VPWR VGND VPWR VGND sky130_ef_sc_hd__decap_12
XFILLER_0_4_41 VPWR VGND VPWR VGND sky130_ef_sc_hd__decap_12
XTAP_TAPCELL_ROW_2_113 VGND VPWR sky130_fd_sc_hd__tapvpwrvgnd_1
XFILLER_0_10_231 VPWR VGND VPWR VGND sky130_ef_sc_hd__decap_12
XFILLER_0_10_253 VPWR VGND VPWR VGND sky130_ef_sc_hd__decap_12
XFILLER_0_10_297 VGND VGND VPWR VPWR sky130_fd_sc_hd__fill_2
XTAP_TAPCELL_ROW_25_226 VGND VPWR sky130_fd_sc_hd__tapvpwrvgnd_1
XFILLER_0_45_161 VGND VGND VPWR VPWR sky130_fd_sc_hd__decap_6
X_892_ _016_ _383_ _387_ _008_ VGND VGND VPWR VPWR _388_ sky130_fd_sc_hd__o31a_1
XFILLER_0_3_217 VGND VGND VPWR VPWR sky130_fd_sc_hd__decap_6
XFILLER_0_10_77 VGND VGND VPWR VPWR sky130_fd_sc_hd__decap_6
XFILLER_0_19_53 VGND VGND VPWR VPWR sky130_fd_sc_hd__decap_3
XFILLER_0_35_85 VGND VGND VPWR VPWR sky130_fd_sc_hd__fill_2
XFILLER_0_27_183 VPWR VGND VPWR VGND sky130_ef_sc_hd__decap_12
XTAP_TAPCELL_ROW_30_251 VGND VPWR sky130_fd_sc_hd__tapvpwrvgnd_1
XFILLER_0_42_197 VPWR VGND VPWR VGND sky130_ef_sc_hd__decap_12
XFILLER_0_42_153 VPWR VGND VPWR VGND sky130_ef_sc_hd__decap_12
XFILLER_0_33_164 VGND VGND VPWR VPWR sky130_fd_sc_hd__fill_1
XFILLER_0_0_209 VPWR VGND VPWR VGND sky130_ef_sc_hd__decap_12
XTAP_TAPCELL_ROW_44_321 VGND VPWR sky130_fd_sc_hd__tapvpwrvgnd_1
X_875_ _365_ _369_ _008_ VGND VGND VPWR VPWR _370_ sky130_fd_sc_hd__o21a_1
XFILLER_0_24_120 VPWR VGND VPWR VGND sky130_ef_sc_hd__decap_12
XFILLER_0_24_153 VGND VGND VPWR VPWR sky130_fd_sc_hd__fill_1
XFILLER_0_24_197 VGND VGND VPWR VPWR sky130_fd_sc_hd__decap_8
XFILLER_0_15_142 VGND VGND VPWR VPWR sky130_fd_sc_hd__fill_2
XFILLER_0_30_123 VGND VGND VPWR VPWR sky130_fd_sc_hd__decap_8
XFILLER_0_30_167 VGND VGND VPWR VPWR sky130_fd_sc_hd__decap_3
X_591_ _022_ VGND VGND VPWR VPWR _080_ sky130_fd_sc_hd__buf_4
X_660_ _143_ _144_ _145_ _146_ _339_ VGND VGND VPWR VPWR _147_ sky130_fd_sc_hd__o221a_1
XFILLER_0_38_289 VGND VGND VPWR VPWR sky130_fd_sc_hd__decap_8
XFILLER_0_38_245 VGND VGND VPWR VPWR sky130_fd_sc_hd__decap_6
X_927_ net23 _015_ VGND VGND VPWR VPWR net7 sky130_fd_sc_hd__dfxtp_2
X_858_ _056_ _421_ _058_ _094_ _041_ VGND VGND VPWR VPWR _352_ sky130_fd_sc_hd__a221o_1
XFILLER_0_16_65 VGND VGND VPWR VPWR sky130_fd_sc_hd__decap_6
X_789_ _121_ _435_ _203_ _191_ _084_ VGND VGND VPWR VPWR _278_ sky130_fd_sc_hd__a32o_1
XFILLER_0_29_245 VPWR VGND VPWR VGND sky130_ef_sc_hd__decap_12
XFILLER_0_32_53 VGND VGND VPWR VPWR sky130_fd_sc_hd__decap_8
XFILLER_0_8_139 VGND VGND VPWR VPWR sky130_fd_sc_hd__fill_1
XFILLER_0_32_3 VPWR VGND VPWR VGND sky130_ef_sc_hd__decap_12
XFILLER_0_35_237 VPWR VGND VPWR VGND sky130_ef_sc_hd__decap_12
XFILLER_0_43_281 VPWR VGND VPWR VGND sky130_ef_sc_hd__decap_12
Xoutput12 net12 VGND VGND VPWR VPWR wr_data[0] sky130_fd_sc_hd__clkbuf_4
X_712_ _190_ _192_ VGND VGND VPWR VPWR _196_ sky130_fd_sc_hd__xor2_1
X_643_ _410_ _064_ _052_ _083_ _067_ VGND VGND VPWR VPWR _130_ sky130_fd_sc_hd__o311a_1
X_574_ _434_ VGND VGND VPWR VPWR _063_ sky130_fd_sc_hd__clkbuf_4
XFILLER_0_26_237 VPWR VGND VPWR VGND sky130_ef_sc_hd__decap_12
XFILLER_0_27_53 VGND VGND VPWR VPWR sky130_fd_sc_hd__decap_3